Circuit: * D:\ECE_Projects\Music_Visualizer\Entire_Circuit\Full_Visualizer.asc

WARNING: Less than two connections to node NC_02.  This node is used by Q:U22:1.
WARNING: Less than two connections to node NC_01.  This node is used by Q:U22:2.
WARNING: Less than two connections to node NC_05.  This node is used by Q:U23:1.
WARNING: Less than two connections to node NC_04.  This node is used by Q:U23:2.
WARNING: Less than two connections to node NC_08.  This node is used by Q:U24:1.
WARNING: Less than two connections to node NC_07.  This node is used by Q:U24:2.
Early termination of direct N-R iteration.
Direct Newton iteration failed to find .op point.  (Use ".option noopiter" to skip.)
Starting Gmin stepping
Gmin = 10
vernier = 0.5
vernier = 0.25
vernier = 0.125
vernier = 0.0625
Gmin = 8.61953
vernier = 0.03125
vernier = 0.015625
vernier = 0.0078125
vernier = 0.00390625
Gmin = 8.47038
vernier = 0.00195313
vernier = 0.000976563
vernier = 0.000488281
Gmin = 0
Gmin stepping failed

Starting source stepping with srcstepmethod=0
Source Step = 3.0303%
Source Step = 33.3333%
Source Step = 63.6364%
Source Step = 93.9394%
Source stepping succeeded in finding the operating point.


Date: Thu Jun 23 23:14:08 2022
Total elapsed time: 9.664 seconds.

tnom = 27
temp = 27
method = modified trap
totiter = 9918
traniter = 8232
tranpoints = 4117
accept = 2624
rejected = 1493
matrix size = 878
fillins = 3787
solver = Normal
Thread vector: 360.4/228.2[4] 59.4/20.8[4] 162.3/78.2[4] 12.6/8.9[3]  2592/500
Matrix Compiler1: 410.58 KB object code size  144.2/95.6/[41.8]
Matrix Compiler2: 138.02 KB object code size  56.9/71.8/[34.3]

