Circuit: * D:\ECE_Projects\Music Visualizer\Bridge Rectifier.asc

.OP point found by inspection.

Date: Fri Apr 15 18:26:31 2022
Total elapsed time: 0.098 seconds.

tnom = 27
temp = 27
method = modified trap
totiter = 2878
traniter = 2878
tranpoints = 1083
accept = 1055
rejected = 28
matrix size = 4
fillins = 1
solver = Normal
Matrix Compiler1:      12 opcodes  0.1/[0.0]/0.1
Matrix Compiler2: off  [0.0]/0.1/0.1

