Circuit: * D:\ECE_Projects\Music_Visualizer\Misc\ComparotorLEDVolumeLadder.asc

Direct Newton iteration failed to find .op point.  (Use ".option noopiter" to skip.)
Starting Gmin stepping
Gmin = 10
Gmin = 1.07374
Gmin = 0.115292
Gmin = 0.0123794
Gmin = 0.00132923
Gmin = 0.000142725
Gmin = 1.5325e-005
Gmin = 1.6455e-006
Gmin = 1.76685e-007
Gmin = 1.89714e-008
Gmin = 2.03704e-009
Gmin = 2.18725e-010
Gmin = 2.34854e-011
Gmin = 2.52173e-012
Gmin = 2.70769e-013
Gmin = 0
Gmin stepping succeeded in finding the operating point.


Date: Sat Oct 08 17:22:25 2022
Total elapsed time: 0.688 seconds.

tnom = 27
temp = 27
method = modified trap
totiter = 13077
traniter = 12643
tranpoints = 3184
accept = 2424
rejected = 760
matrix size = 34
fillins = 17
solver = Normal
Thread vector: 81.9/12.8[4] 7.7/5.0[4] 6.8/4.1[4] 0.3/2.7[1]  2592/500
Matrix Compiler1: 2.31 KB object code size  1.2/0.6/[0.3]
Matrix Compiler2: 3.59 KB object code size  1.0/1.0/[0.5]

