Circuit: * D:\ECE_Projects\Music_Visualizer\Misc\Full_Negative_5V_Regulator_Circuit.asc

Direct Newton iteration for .op point succeeded.
Heightened Def Con from 0.000392385 to 0.000392388

Date: Thu Jun 23 19:36:20 2022
Total elapsed time: 13.728 seconds.

tnom = 27
temp = 27
method = modified trap
totiter = 1691542
traniter = 1691508
tranpoints = 393082
accept = 300469
rejected = 92614
matrix size = 37
fillins = 20
solver = Normal
Matrix Compiler1: 3.49 KB object code size  0.6/0.4/[0.2]
Matrix Compiler2: 3.25 KB object code size  0.3/0.4/[0.3]

