Circuit: * D:\ECE_Projects\Music_Visualizer\Misc\Full_Negative_5V_Regulator_Circuit.asc

Direct Newton iteration for .op point succeeded.

Date: Tue Jun 21 20:35:38 2022
Total elapsed time: 3.784 seconds.

tnom = 27
temp = 27
method = modified trap
totiter = 418034
traniter = 418001
tranpoints = 172044
accept = 133325
rejected = 38719
matrix size = 25
fillins = 23
solver = Normal
Matrix Compiler1: 3.32 KB object code size  0.6/0.4/[0.2]
Matrix Compiler2: off  [0.2]/0.4/0.3

