Circuit: * D:\ECE_Projects\Music_Visualizer\Misc\Inverting (Real) Amp with Bridge Rectifier.asc

Direct Newton iteration for .op point succeeded.

Date: Tue Apr 19 19:04:15 2022
Total elapsed time: 0.148 seconds.

tnom = 27
temp = 27
method = modified trap
totiter = 2123
traniter = 2114
tranpoints = 1043
accept = 1043
rejected = 0
matrix size = 10
fillins = 0
solver = Normal
Matrix Compiler1:      22 opcodes  0.1/[0.1]/0.1
Matrix Compiler2: 692 bytes object code size  0.1/0.2/[0.1]

