Circuit: * D:\ECE_Projects\Music_Visualizer\Misc\Inverting (Real) Amp with Bridge Rectifier.asc

Direct Newton iteration for .op point succeeded.

Date: Wed Apr 20 01:24:21 2022
Total elapsed time: 0.111 seconds.

tnom = 27
temp = 27
method = modified trap
totiter = 2663
traniter = 2654
tranpoints = 1128
accept = 1103
rejected = 25
matrix size = 10
fillins = 4
solver = Normal
Matrix Compiler1: 600 bytes object code size  0.1/0.1/[0.1]
Matrix Compiler2: off  [0.1]/0.1/0.1

