Circuit: * D:\ECE_Projects\Music_Visualizer\Misc\LM324_SuperDiode.asc

Direct Newton iteration for .op point succeeded.

Date: Sun Oct 09 14:21:08 2022
Total elapsed time: 0.106 seconds.

tnom = 27
temp = 27
method = modified trap
totiter = 2121
traniter = 2088
tranpoints = 1045
accept = 1045
rejected = 0
matrix size = 32
fillins = 47
solver = Normal
Matrix Compiler1: 4.01 KB object code size  0.8/0.4/[0.2]
Matrix Compiler2: off  [0.3]/0.4/0.5

