Circuit: * D:\ECE_Projects\Music_Visualizer\Misc\LM324_SuperDiode_Improved.asc

Direct Newton iteration for .op point succeeded.

Date: Sun Oct 09 14:15:51 2022
Total elapsed time: 0.140 seconds.

tnom = 27
temp = 27
method = modified trap
totiter = 5331
traniter = 5312
tranpoints = 1942
accept = 1641
rejected = 301
matrix size = 34
fillins = 49
solver = Normal
Matrix Compiler1: 4.25 KB object code size  0.9/0.4/[0.2]
Matrix Compiler2: 3.57 KB object code size  0.3/0.4/[0.3]

