Circuit: * D:\ECE_Projects\Music_Visualizer\Misc\LM324_Example.asc

Direct Newton iteration for .op point succeeded.

Date: Wed May 11 14:13:59 2022
Total elapsed time: 0.137 seconds.

tnom = 27
temp = 27
method = modified trap
totiter = 2106
traniter = 2092
tranpoints = 1047
accept = 1047
rejected = 0
matrix size = 31
fillins = 37
solver = Normal
Matrix Compiler1: 3.10 KB object code size  0.6/0.3/[0.2]
Matrix Compiler2: off  [0.3]/0.4/0.3

