Circuit: * D:\ECE_Projects\Music_Visualizer\Misc\LM324_With_Voltage_Regulator_Example.asc

Direct Newton iteration for .op point succeeded.
Heightened Def Con from 4.13782e-005 to 4.13793e-005
Heightened Def Con from 4.13811e-005 to 4.13811e-005
Heightened Def Con from 4.13811e-005 to 4.13822e-005
Heightened Def Con from 4.13827e-005 to 4.13829e-005
Heightened Def Con from 4.13829e-005 to 4.13831e-005
Heightened Def Con from 4.13831e-005 to 4.13841e-005
Heightened Def Con from 4.13842e-005 to 4.13844e-005
Heightened Def Con from 4.13845e-005 to 4.13848e-005
Heightened Def Con from 4.13849e-005 to 4.13852e-005
Heightened Def Con from 4.13852e-005 to 4.13863e-005
Heightened Def Con from 4.13906e-005 to 4.13907e-005
Heightened Def Con from 4.13907e-005 to 4.13908e-005
Heightened Def Con from 4.13908e-005 to 4.13911e-005
Heightened Def Con from 4.14021e-005 to 4.14022e-005
Heightened Def Con from 4.14023e-005 to 4.14025e-005
Heightened Def Con from 4.14026e-005 to 4.14026e-005
Heightened Def Con from 4.14026e-005 to 4.14029e-005
Heightened Def Con from 4.14029e-005 to 4.1403e-005
Heightened Def Con from 4.14031e-005 to 4.14031e-005
Heightened Def Con from 4.14031e-005 to 4.14031e-005
Heightened Def Con from 4.14031e-005 to 4.14034e-005
Heightened Def Con from 4.14036e-005 to 4.14047e-005
Heightened Def Con from 4.14065e-005 to 4.14065e-005
Heightened Def Con from 4.14065e-005 to 4.14066e-005
Heightened Def Con from 4.14066e-005 to 4.14068e-005
Heightened Def Con from 4.14068e-005 to 4.1407e-005
Heightened Def Con from 4.14071e-005 to 4.14071e-005
Heightened Def Con from 4.14072e-005 to 4.14072e-005
Heightened Def Con from 4.14072e-005 to 4.14075e-005
Heightened Def Con from 4.14075e-005 to 4.14077e-005
Heightened Def Con from 4.14077e-005 to 4.14089e-005
Heightened Def Con from 4.14097e-005 to 4.14109e-005
Heightened Def Con from 4.14126e-005 to 4.14127e-005
Heightened Def Con from 4.14127e-005 to 4.14128e-005
Heightened Def Con from 4.14128e-005 to 4.14129e-005
Heightened Def Con from 4.14129e-005 to 4.1413e-005
Heightened Def Con from 4.14131e-005 to 4.14133e-005
Heightened Def Con from 4.14134e-005 to 4.14135e-005
Heightened Def Con from 4.14135e-005 +to 4.14165e-005
Heightened Def Con from 4.14168e-005 to 4.14171e-005
Heightened Def Con from 4.14171e-005 to 4.14171e-005
Heightened Def Con from 4.14171e-005 to 4.14172e-005
Heightened Def Con from 4.14172e-005 to 4.14174e-005
Heightened Def Con from 4.14174e-005 to 4.14178e-005
Heightened Def Con from 4.14187e-005 to 4.14197e-005
Heightened Def Con from 4.14198e-005 to 4.14198e-005
Heightened Def Con from 4.14198e-005 to 4.14198e-005
Heightened Def Con from 4.14198e-005 to 4.14201e-005
Heightened Def Con from 4.14218e-005 to 4.1422e-005
Heightened Def Con from 4.14222e-005 to 4.14232e-005
Heightened Def Con from 4.14232e-005 to 4.14232e-005
Heightened Def Con from 4.14232e-005 to 4.14235e-005
Heightened Def Con from 4.14235e-005 to 4.14235e-005
Heightened Def Con from 4.14235e-005 to 4.14235e-005
Heightened Def Con from 4.14235e-005 to 4.14235e-005
Heightened Def Con from 4.14235e-005 to 4.14238e-005
Heightened Def Con from 4.14238e-005 to 4.14241e-005
Heightened Def Con from 4.14241e-005 to 4.14242e-005
Heightened Def Con from 4.14244e-005 to 4.14246e-005
Heightened Def Con from 4.14246e-005 to 4.14249e-005
Heightened Def Con from 4.14249e-005 to 4.14251e-005
Heightened Def Con from 4.14251e-005 to 4.14251e-005
Heightened Def Con from 4.14251e-005 to 4.14251e-005
Heightened Def Con from 4.14251e-005 to 4.14262e-005
Heightened Def Con from 4.14265e-005 to 4.14266e-005
Heightened Def Con from 4.14266e-005 to 4.14277e-005
Heightened Def Con from 4.14279e-005 to 4.1429e-005
Heightened Def Con from 4.14293e-005 to 4.14304e-005
Heightened Def Con from 4.14343e-005 to 4.14343e-005
Heightened Def Con from 4.14343e-005 to 4.14345e-005
Heightened Def Con from 4.14346e-005 to 4.14348e-005
Heightened Def Con from 4.14348e-005 to 4.14351e-005
Heightened Def Con from 4.1436e-005 to 4.14362e-005
Heightened Def Con from 4.14366e-005 to 4.14367e-005
Heightened Def Con from 4.14367e-005 to 4.14369e-005
Heightened Def Con from 4.14371e-005 to 4.14373e-005
Heightened Def Con from 4.14376e-005 to 4.14379e-005
Heightened Def Con from 4.14379e-005 to 4.14381e-005
Heightened Def Con from 4.14381e-005 to 4.14382e-005
Heightened Def Con from 4.14385e-005 to 4.14387e-005
Heightened Def Con from 4.1439e-005 to 4.14393e-005
Heightened Def Con from 4.14395e-005 to 4.14406e-005
Heightened Def Con from 4.14449e-005 to 4.14452e-005
Heightened Def Con from 4.14452e-005 to 4.14463e-005
Heightened Def Con from 4.14473e-005 to 4.14484e-005
Heightened Def Con from 4.14488e-005 +to 4.14489e-005
Heightened Def Con from 4.14489e-005 +to 4.14509e-005
Heightened Def Con from 4.1454e-005 to 4.14551e-005
Heightened Def Con from 4.14605e-005 to 4.14607e-005
Heightened Def Con from 4.14612e-005 to 4.14612e-005
Heightened Def Con from 4.14612e-005 to 4.14615e-005
Heightened Def Con from 4.14635e-005 to 4.14646e-005
Heightened Def Con from 4.14648e-005 to 4.14651e-005
Heightened Def Con from 4.14654e-005 to 4.14664e-005
Heightened Def Con from 4.14665e-005 to 4.14667e-005
Heightened Def Con from 4.14705e-005 to 4.14707e-005
Heightened Def Con from 4.14713e-005 to 4.14715e-005
Heightened Def Con from 4.14717e-005 to 4.14719e-005
Heightened Def Con from 4.14728e-005 to 4.14728e-005
Heightened Def Con from 4.14728e-005 to 4.1473e-005
Heightened Def Con from 4.14738e-005 to 4.14738e-005
Heightened Def Con from 4.1474e-005 to 4.1474e-005
Heightened Def Con from 4.1474e-005 to 4.14742e-005
Heightened Def Con from 4.14743e-005 to 4.14753e-005
Heightened Def Con from 4.14755e-005 to 4.14755e-005
Heightened Def Con from 4.14755e-005 to 4.14757e-005
Heightened Def Con from 4.14757e-005 to 4.14757e-005
Heightened Def Con from 4.14758e-005 to 4.14758e-005
Heightened Def Con from 4.1476e-005 to 4.14763e-005
Heightened Def Con from 4.14765e-005 to 4.14768e-005
Heightened Def Con from 4.14769e-005 to 4.1477e-005
Heightened Def Con from 4.1477e-005 to 4.14773e-005
Heightened Def Con from 4.1481e-005 to 4.14812e-005
Heightened Def Con from 4.14812e-005 to 4.14815e-005
Heightened Def Con from 4.14817e-005 to 4.14817e-005
Heightened Def Con from 4.14817e-005 to 4.14819e-005
Heightened Def Con from 4.14822e-005 to 4.14842e-005
Heightened Def Con from 4.1495e-005 to 4.14952e-005
Heightened Def Con from 4.14954e-005 to 4.14954e-005
Heightened Def Con from 4.14954e-005 to 4.14954e-005
Heightened Def Con from 4.14954e-005 to 4.14955e-005
Heightened Def Con from 4.14955e-005 to 4.14957e-005
Heightened Def Con from 4.15027e-005 to 4.1503e-005
Heightened Def Con from 4.1503e-005 to 4.1503e-005
Heightened Def Con from 4.1503e-005 to 4.15031e-005
Heightened Def Con from 4.15031e-005 to 4.15032e-005
Heightened Def Con from 4.15032e-005 to 4.15034e-005
Heightened Def Con from 4.1522e-005 to 4.1522e-005
Heightened Def Con from 4.1522e-005 to 4.1524e-005
Heightened Def Con from 4.65802e-005 to 4.65802e-005
Heightened Def Con from 4.65802e-005 to 4.65802e-005
Heightened Def Con from 4.65803e-005 to 4.65803e-005
Heightened Def Con from 4.65803e-005 to 4.65815e-005
Heightened Def Con from 4.65833e-005 to 4.65844e-005
Heightened Def Con from 4.65846e-005 to 4.65847e-005
Heightened Def Con from 4.65847e-005 to 4.65848e-005
Heightened Def Con from 4.65849e-005 to 4.65851e-005
Heightened Def Con from 4.65851e-005 to 4.65851e-005
Heightened Def Con from 4.65851e-005 to 4.65851e-005
Heightened Def Con from 4.65852e-005 to 4.65872e-005
Heightened Def Con from 4.65872e-005 to 4.65872e-005
Heightened Def Con from 4.65872e-005 to 4.65873e-005
Heightened Def Con from 4.65873e-005 to 4.65875e-005
Heightened Def Con from 4.65883e-005 to 4.65884e-005
Heightened Def Con from 4.65884e-005 to 4.65895e-005
Heightened Def Con from 4.65896e-005 to 4.65897e-005
Heightened Def Con from 4.65897e-005 to 4.65897e-005
Heightened Def Con from 4.65897e-005 to 4.65899e-005
Heightened Def Con from 4.659e-005 to 4.65902e-005
Heightened Def Con from 4.65905e-005 to 4.65906e-005
Heightened Def Con from 4.65906e-005 to 4.65909e-005
Heightened Def Con from 4.65909e-005 to 4.65909e-005
Heightened Def Con from 4.65909e-005 to 4.65912e-005
Heightened Def Con from 4.65913e-005 to 4.65915e-005
Heightened Def Con from 4.65915e-005 to 4.65925e-005
Heightened Def Con from 4.65926e-005 to 4.65928e-005
Heightened Def Con from 4.65937e-005 to 4.65947e-005
Heightened Def Con from 4.65947e-005 to 4.65947e-005
Heightened Def Con from 4.65947e-005 to 4.6595e-005
Heightened Def Con from 4.65952e-005 to 4.65954e-005
Heightened Def Con from 4.65954e-005 to 4.65974e-005
Heightened Def Con from 4.65974e-005 to 4.65976e-005
Heightened Def Con from 4.65977e-005 to 4.65977e-005
Heightened Def Con from 4.65977e-005 to 4.65987e-005
Heightened Def Con from 4.65987e-005 to 4.65988e-005
Heightened Def Con from 4.65988e-005 to 4.65989e-005
Heightened Def Con from 4.65989e-005 to 4.66009e-005
Heightened Def Con from 4.66037e-005 to 4.66039e-005
Heightened Def Con from 4.66039e-005 to 4.66042e-005
Heightened Def Con from 4.66139e-005 to 4.66139e-005
Heightened Def Con from 4.6614e-005 to 4.6614e-005
Heightened Def Con from 4.6614e-005 to 4.66142e-005
Heightened Def Con from 4.6615e-005 to 4.66152e-005
Heightened Def Con from 4.66155e-005 to 4.66156e-005
Heightened Def Con from 4.66158e-005 to 4.66158e-005
Heightened Def Con from 4.66158e-005 to 4.66178e-005
Heightened Def Con from 4.66181e-005 to 4.66182e-005
Heightened Def Con from 4.66182e-005 to 4.66182e-005
Heightened Def Con from 4.66182e-005 to 4.66185e-005
Heightened Def Con from 4.66192e-005 to 4.66195e-005
Heightened Def Con from 4.66197e-005 to 4.66217e-005
Heightened Def Con from 4.66237e-005 to 4.6624e-005
Heightened Def Con from 4.66252e-005 to 4.66252e-005
Heightened Def Con from 4.66253e-005 to 4.66255e-005
Heightened Def Con from 4.66256e-005 to 4.66266e-005
Heightened Def Con from 4.66267e-005 to 4.66267e-005
Heightened Def Con from 4.66267e-005 to 4.66269e-005
Heightened Def Con from 4.66277e-005 to 4.66277e-005
Heightened Def Con from 4.66277e-005 to 4.66287e-005
Heightened Def Con from 4.66287e-005 to 4.66297e-005
Heightened Def Con from 4.66297e-005 to 4.66297e-005
Heightened Def Con from 4.66297e-005 to 4.663e-005
Heightened Def Con from 4.66309e-005 to 4.66309e-005
Heightened Def Con from 4.66309e-005 to 4.66319e-005
Heightened Def Con from 4.66319e-005 to 4.66319e-005
Heightened Def Con from 4.66319e-005 to 4.66322e-005
Heightened Def Con from 4.66329e-005 to 4.66329e-005
Heightened Def Con from 4.6633e-005 to 4.66331e-005
Heightened Def Con from 4.66331e-005 to 4.66342e-005
Heightened Def Con from 4.66343e-005 to 4.66344e-005
Heightened Def Con from 4.66344e-005 to 4.66346e-005
Heightened Def Con from 4.66346e-005 to 4.66348e-005
Heightened Def Con from 4.66356e-005 to 4.66357e-005
Heightened Def Con from 4.66357e-005 to 4.66357e-005
Heightened Def Con from 4.66357e-005 to 4.66357e-005
Heightened Def Con from 4.66357e-005 to 4.6636e-005
Heightened Def Con from 4.66361e-005 to 4.66362e-005
Heightened Def Con from 4.66364e-005 to 4.66365e-005
Heightened Def Con from 4.66366e-005 to 4.66367e-005
Heightened Def Con from 4.66367e-005 to 4.66368e-005
Heightened Def Con from 4.66369e-005 to 4.66369e-005
Heightened Def Con from 4.66369e-005 to 4.66372e-005
Heightened Def Con from 4.66383e-005 to 4.66385e-005
Heightened Def Con from 4.66388e-005 to 4.66389e-005
Heightened Def Con from 4.66391e-005 to 4.66393e-005
Heightened Def Con from 4.66393e-005 to 4.66393e-005
Heightened Def Con from 4.66393e-005 to 4.66395e-005
Heightened Def Con from 4.66405e-005 to 4.66408e-005
Heightened Def Con from 4.66428e-005 to 4.6643e-005
Heightened Def Con from 4.6643e-005 to 4.6643e-005
Heightened Def Con from 4.6643e-005 to 4.6643e-005
Heightened Def Con from 4.66431e-005 to 4.66451e-005
Heightened Def Con from 4.66453e-005 to 4.66463e-005
Heightened Def Con from 4.66465e-005 to 4.66485e-005
Heightened Def Con from 4.66496e-005 to 4.66506e-005
Heightened Def Con from 4.66506e-005 to 4.66517e-005
Heightened Def Con from 4.66518e-005 to 4.66519e-005
Heightened Def Con from 4.66519e-005 to 4.6652e-005
Heightened Def Con from 4.6652e-005 to 4.66521e-005
Heightened Def Con from 4.66521e-005 to 4.66522e-005
Heightened Def Con from 4.66522e-005 to 4.66522e-005
Heightened Def Con from 4.66522e-005 to 4.66522e-005
Heightened Def Con from 4.66522e-005 to 4.66525e-005
Heightened Def Con from 4.66525e-005 to 4.66527e-005
Heightened Def Con from 4.66528e-005 to 4.66529e-005
Heightened Def Con from 4.6653e-005 to 4.66531e-005
Heightened Def Con from 4.66531e-005 to 4.66551e-005
Heightened Def Con from 4.66551e-005 to 4.66552e-005
Heightened Def Con from 4.66552e-005 to 4.66555e-005
Heightened Def Con from 4.66566e-005 to 4.66568e-005
Heightened Def Con from 4.66571e-005 to 4.66581e-005
Heightened Def Con from 4.66581e-005 to 4.66582e-005
Heightened Def Con from 4.66583e-005 to 4.66584e-005
Heightened Def Con from 4.66586e-005 to 4.66587e-005
Heightened Def Con from 4.66587e-005 to 4.66588e-005
Heightened Def Con from 4.66588e-005 to 4.66588e-005
Heightened Def Con from 4.66588e-005 to 4.66608e-005
Heightened Def Con from 4.66612e-005 to 4.66632e-005
Heightened Def Con from 4.66632e-005 to 4.66632e-005
Heightened Def Con from 4.66632e-005 to 4.66633e-005
Heightened Def Con from 4.66634e-005 to 4.66645e-005
Heightened Def Con from 4.66649e-005 to 4.6665e-005
Heightened Def Con from 4.66651e-005 to 4.66653e-005
Heightened Def Con from 4.66654e-005 to 4.66654e-005
Heightened Def Con from 4.66655e-005 to 4.66675e-005
Heightened Def Con from 4.66682e-005 to 4.66683e-005
Heightened Def Con from 4.66685e-005 to 4.66685e-005
Heightened Def Con from 4.66685e-005 to 4.66685e-005
Heightened Def Con from 4.66685e-005 to 4.66687e-005
Heightened Def Con from 4.66687e-005 to 4.66689e-005
Heightened Def Con from 4.66689e-005 to 4.66709e-005
Heightened Def Con from 4.66729e-005 to 4.66729e-005
Heightened Def Con from 4.66729e-005 to 4.6673e-005
Heightened Def Con from 4.6673e-005 to 4.66733e-005
Heightened Def Con from 4.66733e-005 to 4.66753e-005
Heightened Def Con from 4.66753e-005 +to 4.66773e-005
Heightened Def Con from 4.66773e-005 to 4.66784e-005
Heightened Def Con from 4.66791e-005 to 4.66792e-005
Heightened Def Con from 4.66792e-005 to 4.66803e-005
Heightened Def Con from 4.66808e-005 to 4.66808e-005
Heightened Def Con from 4.66808e-005 to 4.66808e-005
Heightened Def Con from 4.66809e-005 to 4.66821e-005
Heightened Def Con from 4.66822e-005 to 4.66822e-005
Heightened Def Con from 4.66822e-005 to 4.66823e-005
Heightened Def Con from 4.66823e-005 to 4.66825e-005
Heightened Def Con from 4.66826e-005 to 4.66828e-005
Heightened Def Con from 4.66828e-005 to 4.6683e-005
Heightened Def Con from 4.6683e-005 to 4.6684e-005
Heightened Def Con from 4.6684e-005 to 4.66842e-005
Heightened Def Con from 4.66844e-005 to 4.66846e-005
Heightened Def Con from 4.66846e-005 to 4.66866e-005
Heightened Def Con from 4.66867e-005 to 4.66869e-005
Heightened Def Con from 4.66878e-005 to 4.66879e-005
Heightened Def Con from 4.66879e-005 to 4.6688e-005
Heightened Def Con from 4.66881e-005 to 4.66883e-005
Heightened Def Con from 4.66883e-005 to 4.66886e-005
Heightened Def Con from 4.66888e-005 to 4.66908e-005
Heightened Def Con from 4.66908e-005 to 4.66909e-005
Heightened Def Con from 4.66909e-005 to 4.66911e-005
Heightened Def Con from 4.66911e-005 to 4.66931e-005
Heightened Def Con from 4.66943e-005 to 4.66943e-005
Heightened Def Con from 4.66943e-005 to 4.66963e-005
Heightened Def Con from 4.66964e-005 to 4.66966e-005
Heightened Def Con from 4.66995e-005 to 4.66996e-005
Heightened Def Con from 4.66996e-005 to 4.66998e-005
Heightened Def Con from 4.67001e-005 to 4.67001e-005
Heightened Def Con from 4.67001e-005 to 4.67001e-005
Heightened Def Con from 4.67001e-005 to 4.67001e-005
Heightened Def Con from 4.67001e-005 to 4.67001e-005
Heightened Def Con from 4.67002e-005 to 4.67005e-005
Heightened Def Con from 4.67008e-005 to 4.67018e-005
Heightened Def Con from 4.67018e-005 to 4.6702e-005
Heightened Def Con from 4.6702e-005 to 4.6702e-005
Heightened Def Con from 4.6702e-005 to 4.67023e-005
Heightened Def Con from 4.67025e-005 to 4.67028e-005
Heightened Def Con from 4.67028e-005 to 4.67039e-005
Heightened Def Con from 4.6704e-005 to 4.6704e-005
Heightened Def Con from 4.6704e-005 to 4.67043e-005
Heightened Def Con from 4.67052e-005 to 4.67052e-005
Heightened Def Con from 4.67054e-005 to 4.67064e-005
Heightened Def Con from 4.67064e-005 to 4.67066e-005
Heightened Def Con from 4.67066e-005 to 4.67066e-005
Heightened Def Con from 4.67066e-005 to 4.67086e-005
Heightened Def Con from 4.67093e-005 to 4.67113e-005
Heightened Def Con from 5.69063e-005 to 5.69083e-005
Heightened Def Con from 7.72829e-005 to 7.72849e-005
Heightened Def Con from 8.23169e-005 to 8.23179e-005
Heightened Def Con from 8.23179e-005 to 8.23182e-005
Heightened Def Con from 8.23182e-005 to 8.23192e-005
Heightened Def Con from 8.23192e-005 to 8.23192e-005
Heightened Def Con from 8.23192e-005 to 8.23222e-005
Heightened Def Con from 8.73824e-005 +to 8.73854e-005
Heightened Def Con from 8.73863e-005 to 8.73883e-005
Heightened Def Con from 8.73926e-005 to 8.73946e-005
Heightened Def Con from 0.000107852 to 0.000107854
Heightened Def Con from 0.000112842 to 0.000112844
Heightened Def Con from 0.000117955 to 0.000117956
Heightened Def Con from 0.000117956 to 0.000117959
Heightened Def Con from 0.000118207 to 0.000118209
Heightened Def Con from 0.000128113 to 0.000128116
Heightened Def Con from 0.000133294 to 0.000133297
Heightened Def Con from 0.000148616 to 0.000148619
Heightened Def Con from 0.000148619 to 0.000148622
Heightened Def Con from 0.00016893 to 0.000168933
Heightened Def Con from 0.000179069 to 0.000179071
Heightened Def Con from 0.000179074 to 0.000179076
Heightened Def Con from 0.000199646 to 0.000199648
Heightened Def Con from 0.0002098 to 0.000209803
Heightened Def Con from 0.00020987 to 0.000209872
Heightened Def Con from 0.000209873 to 0.000209876
Heightened Def Con from 0.000255698 to 0.000255701
Heightened Def Con from 0.000260712 to 0.000260715
Heightened Def Con from 0.000260716 to 0.000260718
Heightened Def Con from 0.000260718 to 0.000260719
Heightened Def Con from 0.000260719 to 0.000260722
Heightened Def Con from 0.000260817 to 0.00026082
Heightened Def Con from 0.000270876 to 0.000270878
Heightened Def Con from 0.000276151 to 0.000276154
Heightened Def Con from 0.000281184 to 0.000281187
Heightened Def Con from 0.000281201 to 0.000281204
Heightened Def Con from 0.000296457 to 0.000296459
Heightened Def Con from 0.000296459 to 0.000296459
Heightened Def Con from 0.000296459 to 0.000296462
Heightened Def Con from 0.000301411 to 0.000301414
Heightened Def Con from 0.000311451 to 0.000311454
Heightened Def Con from 0.000321573 to 0.000321576
Heightened Def Con from 0.000326799 to 0.000326802
Heightened Def Con from 0.000336825 to 0.000336826
Heightened Def Con from 0.000336826 to 0.000336828
Heightened Def Con from 0.000342183 to 0.000342185
Heightened Def Con from 0.000357404 to 0.000357404
Heightened Def Con from 0.000357406 to 0.000357409
Heightened Def Con from 0.000362435 to 0.000362438
Heightened Def Con from 0.000372481 to 0.000372483
Heightened Def Con from 0.000372649 to 0.000372651
Heightened Def Con from 0.000372748 to 0.000372749
Heightened Def Con from 0.000382783 to 0.000382786
Heightened Def Con from 0.000383078 to 0.000383079
Heightened Def Con from 0.000387879 to 0.000387881
Heightened Def Con from 0.000403419 to 0.000403422
Heightened Def Con from 0.000408514 to 0.000408517
Heightened Def Con from 0.000418795 to 0.000418798
Heightened Def Con from 0.000423746 to 0.000423749
Heightened Def Con from 0.000428722 to 0.000428723
Heightened Def Con from 0.000428723 to 0.000428725
Heightened Def Con from 0.000434019 to 0.00043402
Heightened Def Con from 0.00043402 to 0.000434023
Heightened Def Con from 0.000439148 to 0.000439149
Heightened Def Con from 0.000449241 to 0.000449244
Heightened Def Con from 0.000449247 to 0.00044925
Heightened Def Con from 0.00044928 to 0.000449282
Heightened Def Con from 0.000449286 to 0.000449288
Heightened Def Con from 0.000454409 to 0.00045441
Heightened Def Con from 0.000454411 to 0.000454414
Heightened Def Con from 0.000459503 to 0.000459506
Heightened Def Con from 0.00045951 to 0.000459512
Heightened Def Con from 0.000464363 to 0.000464364
Heightened Def Con from 0.000464412 to 0.000464415
Heightened Def Con from 0.000464465 to 0.000464466
Heightened Def Con from 0.000474511 to 0.000474513
Heightened Def Con from 0.000479877 to 0.000479878
Heightened Def Con from 0.000479879 to 0.00047988
Heightened Def Con from 0.000490009 to 0.000490012
Heightened Def Con from 0.000490017 to 0.00049002
Heightened Def Con from 0.000495109 to 0.000495111
Heightened Def Con from 0.000500217 to 0.00050022
Heightened Def Con from 0.00050022 to 0.00050022
Heightened Def Con from 0.000500221 to 0.000500222
Heightened Def Con from 0.000500222 to 0.000500225
Heightened Def Con from 0.000505187 to 0.000505188
Heightened Def Con from 0.000505389 to 0.000505391
Heightened Def Con from 0.000510484 to 0.000510485
Heightened Def Con from 0.000510485 to 0.000510487
Heightened Def Con from 0.000515348 to 0.000515349
Heightened Def Con from 0.000520485 to 0.000520488
Heightened Def Con from 0.000520596 to 0.000520599
Heightened Def Con from 0.000525704 to 0.000525707
Heightened Def Con from 0.000541002 to 0.000541005
Heightened Def Con from 0.000545954 to 0.000545957
Heightened Def Con from 0.000551197 to 0.0005512
Heightened Def Con from 0.000561429 to 0.000561432
Heightened Def Con from 0.00057155 to 0.000571552
Heightened Def Con from 0.000571553 to 0.000571556
Heightened Def Con from 0.000581643 to 0.000581645
Heightened Def Con from 0.000581812 +to 0.000581815
Heightened Def Con from 0.000581816 to 0.000581816
Heightened Def Con from 0.000581816 to 0.000581816
Heightened Def Con from 0.000581816 to 0.000581819
Heightened Def Con from 0.000597014 to 0.000597016
Heightened Def Con from 0.000597017 to 0.00059702
Heightened Def Con from 0.000612152 to 0.000612154
Heightened Def Con from 0.000612347 to 0.00061235
Heightened Def Con from 0.000617342 to 0.000617345
Heightened Def Con from 0.000632699 to 0.000632702
Heightened Def Con from 0.000637568 to 0.000637571
Heightened Def Con from 0.000637718 to 0.000637719
Heightened Def Con from 0.000637719 to 0.000637719
Heightened Def Con from 0.000637719 to 0.000637722
Heightened Def Con from 0.000637751 to 0.000637753
Heightened Def Con from 0.000647952 to 0.000647955
Heightened Def Con from 0.00065288 to 0.000652882
Heightened Def Con from 0.000652882 to 0.000652884
Heightened Def Con from 0.000673447 to 0.000673447
Heightened Def Con from 0.000673447 to 0.00067345
Heightened Def Con from 0.000683649 to 0.000683652
Heightened Def Con from 0.000692664 to 0.000692665
Heightened Def Con from 0.000693857 to 0.000693859
Heightened Def Con from 0.000693884 to 0.000693887
Heightened Def Con from 0.00071416 to 0.000714163
Heightened Def Con from 0.000724132 to 0.000724135
Heightened Def Con from 0.000724257 to 0.00072426
Heightened Def Con from 0.000770033 to 0.000770036
Heightened Def Con from 0.000775294 to 0.000775295
Heightened Def Con from 0.000775295 to 0.000775296
Heightened Def Con from 0.00077534 to 0.000775342
Heightened Def Con from 0.000780421 to 0.000780421
Heightened Def Con from 0.000780421 to 0.000780424
Heightened Def Con from 0.000780427 to 0.00078043
Heightened Def Con from 0.000780437 to 0.000780437
Heightened Def Con from 0.000780437 to 0.000780439
Heightened Def Con from 0.000795782 to 0.000795785
Heightened Def Con from 0.00081119 to 0.000811192
Heightened Def Con from 0.000811192 to 0.000811195
Heightened Def Con from 0.000821319 to 0.000821322
Heightened Def Con from 0.000821323 to 0.000821326
Heightened Def Con from 0.000821343 to 0.000821344
Heightened Def Con from 0.000821345 to 0.000821348
Heightened Def Con from 0.000826347 to 0.000826348
Heightened Def Con from 0.000826348 to 0.00082635
Heightened Def Con from 0.00083146 to 0.000831461
Heightened Def Con from 0.000831461 to 0.000831461
Heightened Def Con from 0.000831461 to 0.000831464
Heightened Def Con from 0.00083147 to 0.000831473
Heightened Def Con from 0.0008315 to 0.000831501
Heightened Def Con from 0.000831501 to 0.000831504
Heightened Def Con from 0.00084159 to 0.00084159
Heightened Def Con from 0.000846671 to 0.000846671
Heightened Def Con from 0.000846672 to 0.000846675
Heightened Def Con from 0.000851818 to 0.000851819
Heightened Def Con from 0.000851855 to 0.000851858
Heightened Def Con from 0.000856833 to 0.000856836
Heightened Def Con from 0.000872156 to 0.000872158
Heightened Def Con from 0.000872159 to 0.000872162
Heightened Def Con from 0.000872322 to 0.000872324
Heightened Def Con from 0.000872479 to 0.000872481
Heightened Def Con from 0.00087744 to 0.000877443
Heightened Def Con from 0.000877455 to 0.000877457
Heightened Def Con from 0.00088255 to 0.000882552
Heightened Def Con from 0.000897934 to 0.000897936
Heightened Def Con from 0.000903075 to 0.000903077
Heightened Def Con from 0.000908025 to 0.000908028
Heightened Def Con from 0.00090803 to 0.000908033
Heightened Def Con from 0.000908135 to 0.000908138
Heightened Def Con from 0.000913119 to 0.000913121
Heightened Def Con from 0.000913121 to 0.000913123
Heightened Def Con from 0.000913123 to 0.000913126
Heightened Def Con from 0.000918376 to 0.000918378
Heightened Def Con from 0.000918378 to 0.000918378
Heightened Def Con from 0.000918378 to 0.000918381
Heightened Def Con from 0.000923296 to 0.000923298
Heightened Def Con from 0.000923298 to 0.000923299
Heightened Def Con from 0.000923299 to 0.000923302
Heightened Def Con from 0.000923461 to 0.000923464
Heightened Def Con from 0.000923499 to 0.000923501
Heightened Def Con from 0.000933161 to 0.000933163
Heightened Def Con from 0.000933714 to 0.000933715
Heightened Def Con from 0.000933716 to 0.000933717
Heightened Def Con from 0.000954131 to 0.000954133
Heightened Def Con from 0.000954161 to 0.000954163
Heightened Def Con from 0.000959184 to 0.000959187
Heightened Def Con from 0.000964189 to 0.000964191
Heightened Def Con from 0.000964205 to 0.000964205
Heightened Def Con from 0.000964205 to 0.000964206
Heightened Def Con from 0.000964206 to 0.000964209
Heightened Def Con from 0.000964211 to 0.000964212
Heightened Def Con from 0.000964229 to 0.000964232
Heightened Def Con from 0.000969373 to 0.000969374
Heightened Def Con from 0.000969374 to 0.000969377
Heightened Def Con from 0.000969443 to 0.000969445
Heightened Def Con from 0.00097451 to 0.000974512
Heightened Def Con from 0.000974533 to 0.000974534
Heightened Def Con from 0.000974536 to 0.000974538
Heightened Def Con from 0.00098469 to 0.000984692
Heightened Def Con from 0.000984737 to 0.00098474
Heightened Def Con from 0.000994708 to 0.000994711
Heightened Def Con from 0.000994928 to 0.00099493
Heightened Def Con from 0.00100509 to 0.00100509
Heightened Def Con from 0.00100509 to 0.0010051
Heightened Def Con from 0.0010051 to 0.0010051
Heightened Def Con from 0.00100516 to 0.00100516
Heightened Def Con from 0.00100516 to 0.00100517
Heightened Def Con from 0.00101023 to 0.00101023
Heightened Def Con from 0.00101023 to 0.00101023
Heightened Def Con from 0.00101023 to 0.00101024
Heightened Def Con from 0.00101458 to 0.00101459
Heightened Def Con from 0.00101491 to 0.00101492
Heightened Def Con from 0.00102525 to 0.00102526
Heightened Def Con from 0.00103571 to 0.00103571
Heightened Def Con from 0.00104572 to 0.00104572
Heightened Def Con from 0.00104595 to 0.00104595
Heightened Def Con from 0.00105091 to 0.00105091
Heightened Def Con from 0.00106136 to 0.00106136
Heightened Def Con from 0.00106136 to 0.00106136
Heightened Def Con from 0.00106137 to 0.00106137
Heightened Def Con from 0.00107663 to 0.00107663
Heightened Def Con from 0.00107667 to 0.00107667
Heightened Def Con from 0.00107667 to 0.00107668
Heightened Def Con from 0.00107668 to 0.00107668
Heightened Def Con from 0.00107681 to 0.00107681
Heightened Def Con from 0.0010969 to 0.0010969
Heightened Def Con from 0.00110728 to 0.00110728
Heightened Def Con from 0.00111743 to 0.00111743
Heightened Def Con from 0.00112242 to 0.00112242
Heightened Def Con from 0.00112242 to 0.00112242
Heightened Def Con from 0.00112242 to 0.00112243
Heightened Def Con from 0.00112243 to 0.00112243
Heightened Def Con from 0.00112753 to 0.00112753
Heightened Def Con from 0.00112758 to 0.00112759
Heightened Def Con from 0.00113775 to 0.00113776
Heightened Def Con from 0.00113776 to 0.00113776
Heightened Def Con from 0.00114277 to 0.00114277
Heightened Def Con from 0.00114277 to 0.00114277
Heightened Def Con from 0.00114279 to 0.00114279
Heightened Def Con from 0.00114279 to 0.00114279
Heightened Def Con from 0.00114279 to 0.0011428
Heightened Def Con from 0.0011428 +to 0.0011428
Heightened Def Con from 0.00115296 to 0.00115296
Heightened Def Con from 0.00115296 to 0.00115296
Heightened Def Con from 0.00115297 to 0.00115297
Heightened Def Con from 0.00115297 to 0.00115297
Heightened Def Con from 0.00115302 to 0.00115302
Heightened Def Con from 0.00115782 to 0.00115783
Heightened Def Con from 0.00115802 to 0.00115802
Heightened Def Con from 0.00115803 to 0.00115803
Heightened Def Con from 0.00116298 to 0.00116298
Heightened Def Con from 0.00116316 to 0.00116316
Heightened Def Con from 0.00116316 to 0.00116316
Heightened Def Con from 0.00116317 to 0.00116317
Heightened Def Con from 0.00116829 to 0.00116829
Heightened Def Con from 0.00116834 to 0.00116834
Heightened Def Con from 0.00117334 to 0.00117334
Heightened Def Con from 0.00117336 to 0.00117336
Heightened Def Con from 0.00117838 to 0.00117838
Heightened Def Con from 0.00117838 to 0.00117838
Heightened Def Con from 0.00117838 to 0.00117838
Heightened Def Con from 0.00117838 to 0.00117838
Heightened Def Con from 0.00117838 to 0.00117839
Heightened Def Con from 0.00117839 to 0.00117839
Heightened Def Con from 0.00117841 to 0.00117841
Heightened Def Con from 0.00118353 to 0.00118353
Heightened Def Con from 0.00118353 to 0.00118353
Heightened Def Con from 0.00118353 to 0.00118353
Heightened Def Con from 0.00118353 to 0.00118354
Heightened Def Con from 0.00118356 to 0.00118357
Heightened Def Con from 0.00118419 to 0.00118419
Heightened Def Con from 0.00118421 to 0.00118421
Heightened Def Con from 0.00118421 to 0.00118421
Heightened Def Con from 0.00118421 to 0.00118421
Heightened Def Con from 0.00118422 to 0.00118422
Heightened Def Con from 0.00118423 to 0.00118423
Heightened Def Con from 0.00118423 to 0.00118423
Heightened Def Con from 0.00118423 to 0.00118423
Heightened Def Con from 0.00118423 to 0.00118423
Heightened Def Con from 0.00118861 to 0.00118861
Heightened Def Con from 0.00118866 to 0.00118866
Heightened Def Con from 0.00118866 to 0.00118866
Heightened Def Con from 0.00118866 to 0.00118867
Heightened Def Con from 0.00118867 to 0.00118867
Heightened Def Con from 0.00118867 to 0.00118867
Heightened Def Con from 0.00119373 to 0.00119373
Heightened Def Con from 0.00119873 to 0.00119873
Heightened Def Con from 0.00120383 to 0.00120384
Heightened Def Con from 0.00120384 to 0.00120384
Heightened Def Con from 0.00120877 to 0.00120877
Heightened Def Con from 0.00120882 to 0.00120882
Heightened Def Con from 0.00120884 to 0.00120884
Heightened Def Con from 0.00120884 to 0.00120884
Heightened Def Con from 0.00120884 to 0.00120884
Heightened Def Con from 0.00120885 +to 0.00120885
Heightened Def Con from 0.00120885 to 0.00120885
Heightened Def Con from 0.00120889 to 0.0012089
Heightened Def Con from 0.00120891 +to 0.00120892
Heightened Def Con from 0.00120892 to 0.00120892
Heightened Def Con from 0.00120892 to 0.00120892
Heightened Def Con from 0.00120897 to 0.00120897
Heightened Def Con from 0.00120897 to 0.00120897
Heightened Def Con from 0.00120897 +to 0.00120897
Heightened Def Con from 0.00120897 to 0.00120897
Heightened Def Con from 0.00120959 +to 0.00120959
Heightened Def Con from 0.00120959 to 0.00120959
Heightened Def Con from 0.00120959 to 0.00120959
Heightened Def Con from 0.00121394 +to 0.00121394
Heightened Def Con from 0.00121396 to 0.00121396
Heightened Def Con from 0.00121396 to 0.00121396
Heightened Def Con from 0.0012189 to 0.0012189
Heightened Def Con from 0.0012189 to 0.0012189
Heightened Def Con from 0.00121911 to 0.00121911
Heightened Def Con from 0.00122806 to 0.00122806
Heightened Def Con from 0.00122909 to 0.00122909
Heightened Def Con from 0.00122909 to 0.00122909
Heightened Def Con from 0.00122909 +to 0.00122909
Heightened Def Con from 0.00122909 to 0.00122909
Heightened Def Con from 0.00122925 to 0.00122925
Heightened Def Con from 0.00122925 to 0.00122925
Heightened Def Con from 0.00122925 to 0.00122925
Heightened Def Con from 0.00122931 to 0.00122932
Heightened Def Con from 0.00123958 to 0.00123958
Heightened Def Con from 0.00124961 to 0.00124961
Heightened Def Con from 0.0012547 to 0.0012547
Heightened Def Con from 0.00125484 to 0.00125484
Heightened Def Con from 0.00126505 to 0.00126505
Heightened Def Con from 0.00126506 to 0.00126506
Heightened Def Con from 0.00126506 to 0.00126506
Heightened Def Con from 0.00126998 to 0.00126998
Heightened Def Con from 0.00126998 to 0.00126999
Heightened Def Con from 0.00128041 to 0.00128041
Heightened Def Con from 0.00128042 to 0.00128042
Heightened Def Con from 0.00128042 to 0.00128042
Heightened Def Con from 0.00128042 to 0.00128042
Heightened Def Con from 0.00128534 to 0.00128534
Heightened Def Con from 0.00128555 to 0.00128555
Heightened Def Con from 0.00128555 to 0.00128555
Heightened Def Con from 0.00128555 to 0.00128555
Heightened Def Con from 0.00128555 to 0.00128555
Heightened Def Con from 0.00128555 to 0.00128555
Heightened Def Con from 0.00128558 to 0.00128558
Heightened Def Con from 0.00128559 to 0.00128559
Heightened Def Con from 0.00129045 to 0.00129045
Heightened Def Con from 0.00129046 to 0.00129046
Heightened Def Con from 0.00129577 +to 0.00129577
Heightened Def Con from 0.00130079 to 0.00130079
Heightened Def Con from 0.00130079 to 0.00130079
Heightened Def Con from 0.00131083 to 0.00131083
Heightened Def Con from 0.00131083 to 0.00131083
Heightened Def Con from 0.00131107 to 0.00131107
Heightened Def Con from 0.00131108 to 0.00131108
Heightened Def Con from 0.00131108 to 0.00131108
Heightened Def Con from 0.00132626 to 0.00132626
Heightened Def Con from 0.00133139 to 0.00133139
Heightened Def Con from 0.0013314 to 0.0013314
Heightened Def Con from 0.0013314 to 0.0013314
Heightened Def Con from 0.00134144 to 0.00134144
Heightened Def Con from 0.0013466 to 0.0013466
Heightened Def Con from 0.00134666 to 0.00134666
Heightened Def Con from 0.00134666 to 0.00134667
Heightened Def Con from 0.00134668 to 0.00134668
Heightened Def Con from 0.00134669 +to 0.00134669
Heightened Def Con from 0.00134671 to 0.00134671
Heightened Def Con from 0.00135179 to 0.00135179
Heightened Def Con from 0.00135686 to 0.00135686
Heightened Def Con from 0.00135686 to 0.00135686
Heightened Def Con from 0.00135686 to 0.00135687
Heightened Def Con from 0.00135687 to 0.00135687
Heightened Def Con from 0.00135687 to 0.00135687
Heightened Def Con from 0.00135687 to 0.00135687
Heightened Def Con from 0.0013569 to 0.0013569
Heightened Def Con from 0.0013569 to 0.0013569
Heightened Def Con from 0.00137208 to 0.00137208
Heightened Def Con from 0.00137208 to 0.00137208
Heightened Def Con from 0.0013722 to 0.0013722
Heightened Def Con from 0.0013722 +to 0.0013722
Heightened Def Con from 0.0013722 +to 0.0013722
Heightened Def Con from 0.0013722 to 0.0013722
Heightened Def Con from 0.0013722 to 0.0013722
Heightened Def Con from 0.00137222 to 0.00137222
Heightened Def Con from 0.00137727 to 0.00137728
Heightened Def Con from 0.00138741 to 0.00138741
Heightened Def Con from 0.00138741 to 0.00138741
Heightened Def Con from 0.00138744 to 0.00138744
Heightened Def Con from 0.00138744 +to 0.00138745
Heightened Def Con from 0.00138745 to 0.00138745
Heightened Def Con from 0.00138746 to 0.00138746
Heightened Def Con from 0.00139239 to 0.00139239
Heightened Def Con from 0.00139239 to 0.00139239
Heightened Def Con from 0.00140277 to 0.00140277
Heightened Def Con from 0.00140277 to 0.00140277
Heightened Def Con from 0.00140285 to 0.00140285
Heightened Def Con from 0.00140285 to 0.00140285
Heightened Def Con from 0.00140285 to 0.00140286
Heightened Def Con from 0.00140286 to 0.00140286
Heightened Def Con from 0.00140286 to 0.00140286
Heightened Def Con from 0.00140286 to 0.00140286
Heightened Def Con from 0.00140286 to 0.00140286
Heightened Def Con from 0.00140287 to 0.00140287
Heightened Def Con from 0.00140332 +to 0.00140333
Heightened Def Con from 0.00140793 to 0.00140793
Heightened Def Con from 0.00140793 to 0.00140793
Heightened Def Con from 0.00140793 to 0.00140793
Heightened Def Con from 0.00140793 to 0.00140794
Heightened Def Con from 0.00140794 to 0.00140794
Heightened Def Con from 0.00141299 +to 0.00141299
Heightened Def Con from 0.00141299 to 0.00141299
Heightened Def Con from 0.00141299 to 0.00141299
Heightened Def Con from 0.00141302 to 0.00141302
Heightened Def Con from 0.00141302 +to 0.00141302
Heightened Def Con from 0.00142317 to 0.00142317
Heightened Def Con from 0.00142317 to 0.00142317
Heightened Def Con from 0.00142317 to 0.00142317
Heightened Def Con from 0.00142317 to 0.00142317
Heightened Def Con from 0.0014232 to 0.0014232
Heightened Def Con from 0.0014232 to 0.00142321
Heightened Def Con from 0.0014283 to 0.0014283
Heightened Def Con from 0.00143835 to 0.00143835
Heightened Def Con from 0.00143835 to 0.00143835
Heightened Def Con from 0.00143855 to 0.00143855
Heightened Def Con from 0.00143855 to 0.00143855
Heightened Def Con from 0.00144362 to 0.00144362
Heightened Def Con from 0.00144362 +to 0.00144363
Heightened Def Con from 0.00144363 to 0.00144363
Heightened Def Con from 0.00144365 to 0.00144365
Heightened Def Con from 0.00144365 to 0.00144366
Heightened Def Con from 0.0014488 to 0.0014488
Heightened Def Con from 0.0014488 to 0.0014488
Heightened Def Con from 0.0014537 to 0.00145371
Heightened Def Con from 0.00145392 to 0.00145392
Heightened Def Con from 0.00145903 to 0.00145904
Heightened Def Con from 0.00145904 to 0.00145904
Heightened Def Con from 0.00145904 to 0.00145904
Heightened Def Con from 0.00145904 to 0.00145904
Heightened Def Con from 0.00146409 to 0.00146409
Heightened Def Con from 0.00146409 to 0.00146409
Heightened Def Con from 0.00146409 to 0.00146409
Heightened Def Con from 0.0014641 to 0.0014641
Heightened Def Con from 0.0014641 to 0.00146411
Heightened Def Con from 0.00146412 to 0.00146413
Heightened Def Con from 0.00147466 to 0.00147466
Heightened Def Con from 0.00147943 to 0.00147944
Heightened Def Con from 0.00147944 to 0.00147944
Heightened Def Con from 0.00147944 to 0.00147945
Heightened Def Con from 0.00147945 to 0.00147945
Heightened Def Con from 0.00147945 to 0.00147946
Heightened Def Con from 0.00148456 to 0.00148456
Heightened Def Con from 0.00148958 to 0.00148958
Heightened Def Con from 0.00148959 to 0.0014896
Heightened Def Con from 0.00148979 to 0.00148979
Heightened Def Con from 0.00148979 to 0.00148979
Heightened Def Con from 0.00149978 to 0.00149978
Heightened Def Con from 0.00150491 to 0.00150491
Heightened Def Con from 0.00150491 to 0.00150491
Heightened Def Con from 0.00150491 to 0.00150491
Heightened Def Con from 0.00150998 to 0.00150998
Heightened Def Con from 0.00152009 to 0.00152009
Heightened Def Con from 0.00152009 to 0.00152009
Heightened Def Con from 0.00152009 +to 0.0015201
Heightened Def Con from 0.0015201 to 0.0015201
Heightened Def Con from 0.00152522 to 0.00152523
Heightened Def Con from 0.00152525 to 0.00152525
Heightened Def Con from 0.00153019 to 0.00153019
Heightened Def Con from 0.00153036 to 0.00153036
Heightened Def Con from 0.00153036 to 0.00153036
Heightened Def Con from 0.00153036 to 0.00153037
Heightened Def Con from 0.00153037 to 0.00153037
Heightened Def Con from 0.0015355 to 0.0015355
Heightened Def Con from 0.00153555 to 0.00153555
Heightened Def Con from 0.00153555 to 0.00153555
Heightened Def Con from 0.00153555 to 0.00153555
Heightened Def Con from 0.00153555 to 0.00153555
Heightened Def Con from 0.00153558 to 0.00153558
Heightened Def Con from 0.00153558 to 0.00153558
Heightened Def Con from 0.00153558 to 0.00153559
Heightened Def Con from 0.00154062 to 0.00154062
Heightened Def Con from 0.00154062 to 0.00154062
Heightened Def Con from 0.00154575 to 0.00154575
Heightened Def Con from 0.00154575 to 0.00154575
Heightened Def Con from 0.00154575 to 0.00154575
Heightened Def Con from 0.0015458 to 0.00154581
Heightened Def Con from 0.00155067 to 0.00155067
Heightened Def Con from 0.00155067 to 0.00155067
Heightened Def Con from 0.00155088 to 0.00155088
Heightened Def Con from 0.00155597 to 0.00155597
Heightened Def Con from 0.00155598 to 0.00155598
Heightened Def Con from 0.00156106 to 0.00156107
Heightened Def Con from 0.00157118 to 0.00157119
Heightened Def Con from 0.00157126 to 0.00157127
Heightened Def Con from 0.0015815 to 0.0015815
Heightened Def Con from 0.0015815 to 0.00158151
Heightened Def Con from 0.0015917 to 0.0015917
Heightened Def Con from 0.0015917 to 0.00159171
Heightened Def Con from 0.00159688 to 0.00159688
Heightened Def Con from 0.00160176 to 0.00160176
Heightened Def Con from 0.00160176 to 0.00160176
Heightened Def Con from 0.00160195 to 0.00160196
Heightened Def Con from 0.00160688 to 0.00160688
Heightened Def Con from 0.00160708 to 0.00160708
Heightened Def Con from 0.00160708 to 0.00160709
Heightened Def Con from 0.00160709 to 0.00160709
Heightened Def Con from 0.0016071 to 0.0016071
Heightened Def Con from 0.0016071 to 0.00160711
Heightened Def Con from 0.00161194 to 0.00161194
Heightened Def Con from 0.00161202 to 0.00161202
Heightened Def Con from 0.00161215 to 0.00161215
Heightened Def Con from 0.00161215 to 0.00161216
Heightened Def Con from 0.00161216 to 0.00161216
Heightened Def Con from 0.00161216 to 0.00161216
Heightened Def Con from 0.00161219 to 0.00161219
Heightened Def Con from 0.00161678 to 0.00161678
Heightened Def Con from 0.00161693 to 0.00161693
Heightened Def Con from 0.00161694 to 0.00161694
Heightened Def Con from 0.00161696 to 0.00161696
Heightened Def Con from 0.00161719 to 0.00161719
Heightened Def Con from 0.00162226 to 0.00162226
Heightened Def Con from 0.00162227 to 0.00162227
Heightened Def Con from 0.00162228 to 0.00162228
Heightened Def Con from 0.00162275 to 0.00162275
Heightened Def Con from 0.00163768 to 0.00163768
Heightened Def Con from 0.00164271 to 0.00164271
Heightened Def Con from 0.00164271 to 0.00164272
Heightened Def Con from 0.00164762 to 0.00164762
Heightened Def Con from 0.00164785 to 0.00164785
Heightened Def Con from 0.00164786 to 0.00164786
Heightened Def Con from 0.00165805 to 0.00165806
Heightened Def Con from 0.00166306 to 0.00166307
Heightened Def Con from 0.00166307 to 0.00166307
Heightened Def Con from 0.00166307 to 0.00166307
Heightened Def Con from 0.00166307 to 0.00166307
Heightened Def Con from 0.00167323 to 0.00167324
Heightened Def Con from 0.00167823 to 0.00167824
Heightened Def Con from 0.00168326 to 0.00168327
Heightened Def Con from 0.00168327 to 0.00168327
Heightened Def Con from 0.00168327 to 0.00168327
Heightened Def Con from 0.00168352 to 0.00168352
Heightened Def Con from 0.00168863 to 0.00168864
Heightened Def Con from 0.00168866 to 0.00168866
Heightened Def Con from 0.00169342 to 0.00169342
Heightened Def Con from 0.00169363 to 0.00169363
Heightened Def Con from 0.00169889 to 0.00169889
Heightened Def Con from 0.00170379 to 0.00170379
Heightened Def Con from 0.00170379 to 0.00170379
Heightened Def Con from 0.00170379 to 0.00170379
Heightened Def Con from 0.00170913 to 0.00170913
Heightened Def Con from 0.00171402 to 0.00171402
Heightened Def Con from 0.00171402 to 0.00171403
Heightened Def Con from 0.00171916 to 0.00171917
Heightened Def Con from 0.00172922 to 0.00172922
Heightened Def Con from 0.0017294 to 0.0017294
Heightened Def Con from 0.00173473 to 0.00173473
Heightened Def Con from 0.00173473 to 0.00173474
Heightened Def Con from 0.00173951 to 0.00173951
Heightened Def Con from 0.00173951 to 0.00173951
Heightened Def Con from 0.00173952 to 0.00173952
Heightened Def Con from 0.00173953 to 0.00173953
Heightened Def Con from 0.00173953 to 0.00173953
Heightened Def Con from 0.00173976 to 0.00173976
Heightened Def Con from 0.00174488 to 0.00174488
Heightened Def Con from 0.00174489 to 0.00174489
Heightened Def Con from 0.00174489 to 0.00174489
Heightened Def Con from 0.00174489 to 0.00174489
Heightened Def Con from 0.00175001 to 0.00175001
Heightened Def Con from 0.00175007 to 0.00175007
Heightened Def Con from 0.00175514 to 0.00175515
Heightened Def Con from 0.00175515 to 0.00175515
Heightened Def Con from 0.00176029 to 0.00176029
Heightened Def Con from 0.00176541 to 0.00176541
Heightened Def Con from 0.00176541 to 0.00176541
Heightened Def Con from 0.00176544 to 0.00176544
Heightened Def Con from 0.00177051 to 0.00177051
Heightened Def Con from 0.0017706 to 0.0017706
Heightened Def Con from 0.00177553 to 0.00177553
Heightened Def Con from 0.00177553 to 0.00177554
Heightened Def Con from 0.00177554 to 0.00177554
Heightened Def Con from 0.00178565 to 0.00178565
Heightened Def Con from 0.00179067 to 0.00179067
Heightened Def Con from 0.00179077 to 0.00179077
Heightened Def Con from 0.00179077 to 0.00179077
Heightened Def Con from 0.00179585 to 0.00179586
Heightened Def Con from 0.00179586 to 0.00179587
Heightened Def Con from 0.00179587 to 0.00179587
Heightened Def Con from 0.00181101 to 0.00181101
Heightened Def Con from 0.0018113 to 0.00181131
Heightened Def Con from 0.00181638 to 0.00181638
Heightened Def Con from 0.00181638 to 0.00181638
Heightened Def Con from 0.0018266 to 0.00182661
Heightened Def Con from 0.0018315 to 0.0018315
Heightened Def Con from 0.00183169 to 0.00183169
Heightened Def Con from 0.00183169 to 0.00183169
Heightened Def Con from 0.00183175 to 0.00183176
Heightened Def Con from 0.00183179 to 0.00183179
Heightened Def Con from 0.00183671 to 0.00183672
Heightened Def Con from 0.00183673 to 0.00183674
Heightened Def Con from 0.00183675 to 0.00183675
Heightened Def Con from 0.00183676 to 0.00183676
Heightened Def Con from 0.00184187 to 0.00184188
Heightened Def Con from 0.00184189 to 0.00184189
Heightened Def Con from 0.00185183 to 0.00185183
Heightened Def Con from 0.00185208 to 0.00185208
Heightened Def Con from 0.00185213 to 0.00185214
Heightened Def Con from 0.00186224 to 0.00186224
Heightened Def Con from 0.00186224 to 0.00186224
Heightened Def Con from 0.00186226 to 0.00186227
Heightened Def Con from 0.00186227 to 0.00186227
Heightened Def Con from 0.00186227 to 0.00186227
Heightened Def Con from 0.00186227 to 0.00186227
Heightened Def Con from 0.00186231 to 0.00186231
Heightened Def Con from 0.00186734 to 0.00186734
Heightened Def Con from 0.00187224 to 0.00187224
Heightened Def Con from 0.00187757 to 0.00187758
Heightened Def Con from 0.00187758 to 0.00187758
Heightened Def Con from 0.00187758 to 0.00187758
Heightened Def Con from 0.00188254 to 0.00188254
Heightened Def Con from 0.00188265 to 0.00188265
Heightened Def Con from 0.00188265 to 0.00188266
Heightened Def Con from 0.00188267 to 0.00188268
Heightened Def Con from 0.00188268 to 0.00188268
Heightened Def Con from 0.00188269 to 0.00188269
Heightened Def Con from 0.00188767 to 0.00188767
Heightened Def Con from 0.00188767 to 0.00188768
Heightened Def Con from 0.00188771 to 0.00188771
Heightened Def Con from 0.00189253 to 0.00189253
Heightened Def Con from 0.00189253 to 0.00189254
Heightened Def Con from 0.00189271 to 0.00189271
Heightened Def Con from 0.00189785 to 0.00189785
Heightened Def Con from 0.00189785 to 0.00189786
Heightened Def Con from 0.0019132 to 0.0019132
Heightened Def Con from 0.0019132 to 0.0019132
Heightened Def Con from 0.00191321 to 0.00191321
Heightened Def Con from 0.00191804 to 0.00191804
Heightened Def Con from 0.00191825 to 0.00191825
Heightened Def Con from 0.00191826 to 0.00191827
Heightened Def Con from 0.00192341 to 0.00192341
Heightened Def Con from 0.00192825 to 0.00192825
Heightened Def Con from 0.00192849 to 0.00192849
Heightened Def Con from 0.0019285 to 0.0019285
Heightened Def Con from 0.0019285 to 0.00192851
Heightened Def Con from 0.00193332 to 0.00193332
Heightened Def Con from 0.00193873 to 0.00193873
Heightened Def Con from 0.00193873 to 0.00193874
Heightened Def Con from 0.00194381 to 0.00194381
Heightened Def Con from 0.00194386 to 0.00194386
Heightened Def Con from 0.00194391 to 0.00194391
Heightened Def Con from 0.00194391 to 0.00194392
Heightened Def Con from 0.00194899 to 0.00194899
Heightened Def Con from 0.00195381 to 0.00195381
Heightened Def Con from 0.00195398 to 0.00195399
Heightened Def Con from 0.00195414 to 0.00195414
Heightened Def Con from 0.00195903 to 0.00195904
Heightened Def Con from 0.00195921 to 0.00195921
Heightened Def Con from 0.00195921 to 0.00195921
Heightened Def Con from 0.00195921 to 0.00195921
Heightened Def Con from 0.00195922 to 0.00195922
Heightened Def Con from 0.00196435 to 0.00196435
Heightened Def Con from 0.00196435 to 0.00196435
Heightened Def Con from 0.00197431 to 0.00197432
Heightened Def Con from 0.00197432 to 0.00197432
Heightened Def Con from 0.00197452 to 0.00197452
Heightened Def Con from 0.00197459 to 0.0019746
Heightened Def Con from 0.0019949 to 0.00199491
Heightened Def Con from 0.00199499 to 0.00199499
Heightened Def Con from 0.0020001 to 0.0020001
Heightened Def Con from 0.0020001 to 0.0020001
Heightened Def Con from 0.00200011 to 0.00200011
Heightened Def Con from 0.00200011 to 0.00200011
Heightened Def Con from 0.0020052 to 0.0020052
Heightened Def Con from 0.00201538 to 0.00201539
Heightened Def Con from 0.00202053 to 0.00202053
Heightened Def Con from 0.00202571 to 0.00202571
Heightened Def Con from 0.00202571 to 0.00202571
Heightened Def Con from 0.0020355 to 0.0020355
Heightened Def Con from 0.00204079 to 0.0020408
Heightened Def Con from 0.00204603 to 0.00204603
Heightened Def Con from 0.00204603 to 0.00204603
Heightened Def Con from 0.00205604 to 0.00205604
Heightened Def Con from 0.00205622 to 0.00205623
Heightened Def Con from 0.00206114 to 0.00206114
Heightened Def Con from 0.00206633 to 0.00206633
Heightened Def Con from 0.00206646 to 0.00206646
Heightened Def Con from 0.00207149 to 0.00207149
Heightened Def Con from 0.00208177 to 0.00208178
Heightened Def Con from 0.00208684 to 0.00208684
Heightened Def Con from 0.00209689 to 0.00209689
Heightened Def Con from 0.00209689 to 0.00209689
Heightened Def Con from 0.00209689 to 0.0020969
Heightened Def Con from 0.00210175 to 0.00210176
Heightened Def Con from 0.00210176 to 0.00210176
Heightened Def Con from 0.00210712 to 0.00210712
Heightened Def Con from 0.00211218 to 0.00211218
Heightened Def Con from 0.00211739 to 0.00211739
Heightened Def Con from 0.00212243 to 0.00212243
Heightened Def Con from 0.00212245 to 0.00212245
Heightened Def Con from 0.00212247 to 0.00212247
Heightened Def Con from 0.00212247 to 0.00212248
Heightened Def Con from 0.00212248 to 0.00212248
Heightened Def Con from 0.00212275 to 0.00212275
Heightened Def Con from 0.00212761 to 0.00212761
Heightened Def Con from 0.00212765 to 0.00212766
Heightened Def Con from 0.00213269 to 0.00213269
Heightened Def Con from 0.00213269 to 0.00213269
Heightened Def Con from 0.00213272 to 0.00213272
Heightened Def Con from 0.00213272 to 0.00213273
Heightened Def Con from 0.00213273 to 0.00213273
Heightened Def Con from 0.00213273 to 0.00213274
Heightened Def Con from 0.00214295 to 0.00214295
Heightened Def Con from 0.00214298 to 0.00214298
Heightened Def Con from 0.00214813 to 0.00214813
Heightened Def Con from 0.00215321 to 0.00215322
Heightened Def Con from 0.00216346 to 0.00216346
Heightened Def Con from 0.00216348 to 0.00216349
Heightened Def Con from 0.00216853 to 0.00216853
Heightened Def Con from 0.00216858 to 0.00216859
Heightened Def Con from 0.00217863 to 0.00217863
Heightened Def Con from 0.00217863 to 0.00217863
Heightened Def Con from 0.00217864 to 0.00217864
Heightened Def Con from 0.00217866 to 0.00217866
Heightened Def Con from 0.00217866 to 0.00217866
Heightened Def Con from 0.00217867 to 0.00217867
Heightened Def Con from 0.00217885 to 0.00217885
Heightened Def Con from 0.00217891 to 0.00217891
Heightened Def Con from 0.00218396 to 0.00218396
Heightened Def Con from 0.00218899 to 0.002189
Heightened Def Con from 0.00219391 to 0.00219391
Heightened Def Con from 0.00219413 to 0.00219413
Heightened Def Con from 0.00219414 to 0.00219414
Heightened Def Con from 0.00219926 to 0.00219926
Heightened Def Con from 0.00219932 to 0.00219932
Heightened Def Con from 0.00220931 to 0.00220931
Heightened Def Con from 0.00220945 to 0.00220946
Heightened Def Con from 0.00220953 to 0.00220954
Heightened Def Con from 0.00220958 to 0.00220958
Heightened Def Con from 0.00220958 to 0.00220958
Heightened Def Con from 0.00221955 to 0.00221955
Heightened Def Con from 0.00221977 to 0.00221978
Heightened Def Con from 0.00221978 to 0.00221978
Heightened Def Con from 0.00222481 to 0.00222481
Heightened Def Con from 0.00222484 to 0.00222484
Heightened Def Con from 0.0022298 to 0.0022298
Heightened Def Con from 0.0022298 to 0.00222981
Heightened Def Con from 0.00223506 to 0.00223507
Heightened Def Con from 0.00223509 to 0.00223509
Heightened Def Con from 0.00223999 to 0.00223999
Heightened Def Con from 0.00224534 to 0.00224534
Heightened Def Con from 0.00225544 to 0.00225544
Heightened Def Con from 0.0022556 to 0.0022556
Heightened Def Con from 0.0022556 to 0.0022556
Heightened Def Con from 0.0022556 to 0.0022556
Heightened Def Con from 0.00226067 to 0.00226068
Heightened Def Con from 0.0022658 to 0.0022658
Heightened Def Con from 0.0022658 to 0.00226581
Heightened Def Con from 0.00227596 to 0.00227597
Heightened Def Con from 0.00227606 to 0.00227607
Heightened Def Con from 0.00227608 to 0.00227608
Heightened Def Con from 0.0022812 to 0.0022812
Heightened Def Con from 0.0022812 to 0.0022812
Heightened Def Con from 0.00228121 to 0.00228121
Heightened Def Con from 0.00228124 to 0.00228124
Heightened Def Con from 0.00228124 to 0.00228124
Heightened Def Con from 0.00228132 to 0.00228132
Heightened Def Con from 0.00228132 to 0.00228132
Heightened Def Con from 0.00228599 to 0.00228599
Heightened Def Con from 0.00229114 to 0.00229114
Heightened Def Con from 0.00229136 to 0.00229136
Heightened Def Con from 0.00229137 to 0.00229137
Heightened Def Con from 0.00229137 to 0.00229137
Heightened Def Con from 0.00229137 to 0.00229137
Heightened Def Con from 0.00229647 to 0.00229648
Heightened Def Con from 0.00229648 to 0.00229649
Heightened Def Con from 0.00229649 to 0.00229649
Heightened Def Con from 0.00229649 to 0.00229649
Heightened Def Con from 0.00229649 to 0.0022965
Heightened Def Con from 0.00230131 to 0.00230131
Heightened Def Con from 0.00230131 to 0.00230132
Heightened Def Con from 0.0023016 to 0.00230161
Heightened Def Con from 0.00230162 to 0.00230162
Heightened Def Con from 0.00230162 to 0.00230163
Heightened Def Con from 0.00230666 to 0.00230666
Heightened Def Con from 0.00230667 to 0.00230667
Heightened Def Con from 0.00230674 to 0.00230675
Heightened Def Con from 0.00230675 to 0.00230675
Heightened Def Con from 0.00230675 to 0.00230676
Heightened Def Con from 0.00231162 to 0.00231163
Heightened Def Con from 0.00231163 to 0.00231163
Heightened Def Con from 0.00232205 to 0.00232205
Heightened Def Con from 0.00232717 to 0.00232718
Heightened Def Con from 0.0023272 to 0.0023272
Heightened Def Con from 0.00233201 to 0.00233201
Heightened Def Con from 0.00233729 to 0.00233729
Heightened Def Con from 0.00233738 to 0.00233738
Heightened Def Con from 0.00233739 to 0.00233739
Heightened Def Con from 0.00233739 to 0.00233739
Heightened Def Con from 0.00234244 to 0.00234244
Heightened Def Con from 0.0023425 to 0.00234251
Heightened Def Con from 0.00234691 to 0.00234691
Heightened Def Con from 0.00234754 to 0.00234754
Heightened Def Con from 0.00235236 to 0.00235236
Heightened Def Con from 0.00235272 to 0.00235273
Heightened Def Con from 0.00235762 to 0.00235762
Heightened Def Con from 0.00235781 to 0.00235781
Heightened Def Con from 0.00235781 to 0.00235781
Heightened Def Con from 0.00235781 to 0.00235781
Heightened Def Con from 0.00235781 to 0.00235781
Heightened Def Con from 0.00235782 to 0.00235782
Heightened Def Con from 0.00236797 to 0.00236797
Heightened Def Con from 0.00237814 to 0.00237814
Heightened Def Con from 0.00237814 to 0.00237814
Heightened Def Con from 0.00237814 to 0.00237815
Heightened Def Con from 0.00237815 to 0.00237815
Heightened Def Con from 0.00238307 to 0.00238307
Heightened Def Con from 0.00238307 to 0.00238307
Heightened Def Con from 0.00238836 to 0.00238837
Heightened Def Con from 0.00238837 to 0.00238837
Heightened Def Con from 0.00239344 to 0.00239344
Heightened Def Con from 0.00239344 to 0.00239345
Heightened Def Con from 0.00239345 to 0.00239345
Heightened Def Con from 0.00239848 to 0.00239848
Heightened Def Con from 0.00239857 to 0.00239858
Heightened Def Con from 0.0023986 to 0.0023986
Heightened Def Con from 0.0023986 to 0.0023986
Heightened Def Con from 0.00240271 to 0.00240272
Heightened Def Con from 0.0024034 to 0.0024034
Heightened Def Con from 0.00240359 to 0.00240359
Heightened Def Con from 0.00240365 to 0.00240365
Heightened Def Con from 0.00241369 to 0.00241369
Heightened Def Con from 0.00241903 to 0.00241903
Heightened Def Con from 0.00242421 to 0.00242421
Heightened Def Con from 0.00242928 to 0.00242928
Heightened Def Con from 0.00242929 to 0.00242929
Heightened Def Con from 0.00242929 to 0.00242929
Heightened Def Con from 0.00242929 to 0.0024293
Heightened Def Con from 0.0024344 to 0.0024344
Heightened Def Con from 0.00243953 to 0.00243953
Heightened Def Con from 0.00243954 to 0.00243954
Heightened Def Con from 0.00244466 to 0.00244467
Heightened Def Con from 0.00245995 to 0.00245996
Heightened Def Con from 0.00245998 to 0.00245998
Heightened Def Con from 0.00245999 to 0.00246
Heightened Def Con from 0.00247001 to 0.00247001
Heightened Def Con from 0.00247001 to 0.00247001
Heightened Def Con from 0.00247012 to 0.00247013
Heightened Def Con from 0.00247022 to 0.00247023
Heightened Def Con from 0.00247023 to 0.00247023
Heightened Def Con from 0.00247023 to 0.00247023
Heightened Def Con from 0.00247537 to 0.00247538
Heightened Def Con from 0.00247542 to 0.00247542
Heightened Def Con from 0.00247542 to 0.00247542
Heightened Def Con from 0.00248052 to 0.00248052
Heightened Def Con from 0.00248566 to 0.00248567
Heightened Def Con from 0.00249072 to 0.00249073
Heightened Def Con from 0.00249585 to 0.00249585
Heightened Def Con from 0.00249585 to 0.00249585
Heightened Def Con from 0.00249585 to 0.00249585
Heightened Def Con from 0.00250097 to 0.00250097
Heightened Def Con from 0.00250097 to 0.00250097
Heightened Def Con from 0.00250097 to 0.00250097
Heightened Def Con from 0.00250097 to 0.00250098
Heightened Def Con from 0.00250098 to 0.00250098
Heightened Def Con from 0.00250098 to 0.00250098
Heightened Def Con from 0.00250098 to 0.00250098
Heightened Def Con from 0.00250098 to 0.00250098
Heightened Def Con from 0.00250099 to 0.00250099
Heightened Def Con from 0.00250584 to 0.00250585
Heightened Def Con from 0.00250585 to 0.00250585
Heightened Def Con from 0.0025059 to 0.0025059
Heightened Def Con from 0.00250601 to 0.00250602
Heightened Def Con from 0.00250605 to 0.00250605
Heightened Def Con from 0.00250612 to 0.00250612
Heightened Def Con from 0.00250612 to 0.00250613
Heightened Def Con from 0.00250613 to 0.00250613
Heightened Def Con from 0.00251116 to 0.00251116
Heightened Def Con from 0.00251626 to 0.00251626
Heightened Def Con from 0.00251634 to 0.00251634
Heightened Def Con from 0.00252141 to 0.00252141
Heightened Def Con from 0.0025223 to 0.0025223
Heightened Def Con from 0.0025223 to 0.00252231
Heightened Def Con from 0.00252661 to 0.00252661
Heightened Def Con from 0.00253142 to 0.00253142
Heightened Def Con from 0.00254171 to 0.00254171
Heightened Def Con from 0.00254171 to 0.00254171
Heightened Def Con from 0.00254172 to 0.00254172
Heightened Def Con from 0.00254193 to 0.00254193
Heightened Def Con from 0.00255191 to 0.00255191
Heightened Def Con from 0.00255212 to 0.00255212
Heightened Def Con from 0.00255212 to 0.00255212
Heightened Def Con from 0.00255212 to 0.00255213
Heightened Def Con from 0.00255707 to 0.00255707
Heightened Def Con from 0.00255707 to 0.00255707
Heightened Def Con from 0.00255708 to 0.00255709
Heightened Def Con from 0.00255709 to 0.00255709
Heightened Def Con from 0.00255709 to 0.0025571
Heightened Def Con from 0.0025571 to 0.0025571
Heightened Def Con from 0.0025573 to 0.0025573
Heightened Def Con from 0.0025573 to 0.00255731
Heightened Def Con from 0.00256236 to 0.00256237
Heightened Def Con from 0.00257241 to 0.00257241
Heightened Def Con from 0.0025726 to 0.0025726
Heightened Def Con from 0.0025726 to 0.00257261
Heightened Def Con from 0.0025775 to 0.00257751
Heightened Def Con from 0.00257754 to 0.00257754
Heightened Def Con from 0.00257772 to 0.00257772
Heightened Def Con from 0.00258285 to 0.00258285
Heightened Def Con from 0.00258285 to 0.00258285
Heightened Def Con from 0.00258787 to 0.00258787
Heightened Def Con from 0.00260831 to 0.00260831
Heightened Def Con from 0.00260832 to 0.00260832
Heightened Def Con from 0.00261343 to 0.00261344
Heightened Def Con from 0.00261839 to 0.00261839
Heightened Def Con from 0.00261839 to 0.0026184
Heightened Def Con from 0.00261859 to 0.00261859
Heightened Def Con from 0.00262366 to 0.00262367
Heightened Def Con from 0.0026286 to 0.0026286
Heightened Def Con from 0.00262885 to 0.00262885
Heightened Def Con from 0.00263387 to 0.00263387
Heightened Def Con from 0.00263387 to 0.00263387
Heightened Def Con from 0.00263878 to 0.00263878
Heightened Def Con from 0.00265427 to 0.00265427
Heightened Def Con from 0.00265427 to 0.00265428
Heightened Def Con from 0.00265428 to 0.00265428
Heightened Def Con from 0.00265943 to 0.00265943
Heightened Def Con from 0.00265943 to 0.00265943
Heightened Def Con from 0.00266958 to 0.00266958
Heightened Def Con from 0.00266968 to 0.00266968
Heightened Def Con from 0.00267473 to 0.00267473
Heightened Def Con from 0.00267965 to 0.00267965
Heightened Def Con from 0.00268474 to 0.00268474
Heightened Def Con from 0.00268476 to 0.00268476
Heightened Def Con from 0.00268492 to 0.00268492
Heightened Def Con from 0.00268495 to 0.00268496
Heightened Def Con from 0.00268496 to 0.00268496
Heightened Def Con from 0.00268497 to 0.00268497
Heightened Def Con from 0.00268497 to 0.00268498
Heightened Def Con from 0.00269012 to 0.00269012
Heightened Def Con from 0.00269518 to 0.00269518
Heightened Def Con from 0.00269518 to 0.00269518
Heightened Def Con from 0.00269519 to 0.00269519
Heightened Def Con from 0.00270031 to 0.00270032
Heightened Def Con from 0.00270032 to 0.00270032
Heightened Def Con from 0.00270032 to 0.00270032
Heightened Def Con from 0.00270035 to 0.00270035
Heightened Def Con from 0.00270035 to 0.00270035
Heightened Def Con from 0.0027054 to 0.0027054
Heightened Def Con from 0.0027054 to 0.0027054
Heightened Def Con from 0.0027054 to 0.0027054
Heightened Def Con from 0.0027054 to 0.0027054
Heightened Def Con from 0.00271049 to 0.00271049
Heightened Def Con from 0.00271541 to 0.00271541
Heightened Def Con from 0.00271559 to 0.00271559
Heightened Def Con from 0.00271559 to 0.0027156
Heightened Def Con from 0.00272044 to 0.00272044
Heightened Def Con from 0.00272071 to 0.00272071
Heightened Def Con from 0.00274112 to 0.00274112
Heightened Def Con from 0.00274615 to 0.00274615
Heightened Def Con from 0.00275132 to 0.00275132
Heightened Def Con from 0.00275643 to 0.00275643
Heightened Def Con from 0.00275643 to 0.00275643
Heightened Def Con from 0.00278188 to 0.00278189
Heightened Def Con from 0.00278705 to 0.00278705
Heightened Def Con from 0.00278706 to 0.00278706
Heightened Def Con from 0.00278706 to 0.00278706
Heightened Def Con from 0.00278706 to 0.00278706
Heightened Def Con from 0.00279217 to 0.00279217
Heightened Def Con from 0.00279218 to 0.00279219
Heightened Def Con from 0.00279224 to 0.00279224
Heightened Def Con from 0.00279718 to 0.00279718
Heightened Def Con from 0.00279719 to 0.00279719
Heightened Def Con from 0.00280227 to 0.00280227
Heightened Def Con from 0.00281222 to 0.00281222
Heightened Def Con from 0.00281222 to 0.00281222
Heightened Def Con from 0.00281245 to 0.00281245
Heightened Def Con from 0.00281245 to 0.00281245
Heightened Def Con from 0.00281755 to 0.00281755
Heightened Def Con from 0.00281755 to 0.00281755
Heightened Def Con from 0.00281756 to 0.00281756
Heightened Def Con from 0.00281756 to 0.00281756
Heightened Def Con from 0.00282246 to 0.00282246
Heightened Def Con from 0.00282269 to 0.00282269
Heightened Def Con from 0.00282274 to 0.00282274
Heightened Def Con from 0.00282756 to 0.00282757
Heightened Def Con from 0.0028278 to 0.0028278
Heightened Def Con from 0.0028278 to 0.0028278
Heightened Def Con from 0.00282782 to 0.00282782
Heightened Def Con from 0.00282783 to 0.00282783
Heightened Def Con from 0.00283288 to 0.00283289
Heightened Def Con from 0.00283289 to 0.00283289
Heightened Def Con from 0.00283295 to 0.00283295
Heightened Def Con from 0.00283803 to 0.00283803
Heightened Def Con from 0.00283803 to 0.00283803
Heightened Def Con from 0.00284317 to 0.00284318
Heightened Def Con from 0.00284811 to 0.00284812
Heightened Def Con from 0.00284824 to 0.00284824
Heightened Def Con from 0.00285338 to 0.00285338
Heightened Def Con from 0.00285844 to 0.00285845
Heightened Def Con from 0.00286334 to 0.00286335
Heightened Def Con from 0.00286347 to 0.00286347
Heightened Def Con from 0.00286846 to 0.00286846
Heightened Def Con from 0.0028687 to 0.00286871
Heightened Def Con from 0.00287359 to 0.00287359
Heightened Def Con from 0.00287383 to 0.00287383
Heightened Def Con from 0.00287387 to 0.00287387
Heightened Def Con from 0.00287872 to 0.00287872
Heightened Def Con from 0.0028789 to 0.00287891
Heightened Def Con from 0.00287908 to 0.00287908
Heightened Def Con from 0.00288397 to 0.00288397
Heightened Def Con from 0.00288397 to 0.00288398
Heightened Def Con from 0.0028891 to 0.0028891
Heightened Def Con from 0.0028891 to 0.0028891
Heightened Def Con from 0.00289935 to 0.00289935
Heightened Def Con from 0.00289936 to 0.00289937
Heightened Def Con from 0.00290447 to 0.00290447
Heightened Def Con from 0.00290449 to 0.00290449
Heightened Def Con from 0.00290455 to 0.00290455
Heightened Def Con from 0.0029094 to 0.0029094
Heightened Def Con from 0.00290961 to 0.00290961
Heightened Def Con from 0.00290961 to 0.00290961
Heightened Def Con from 0.00291983 to 0.00291983
Heightened Def Con from 0.00294533 to 0.00294533
Heightened Def Con from 0.00294533 to 0.00294534
Heightened Def Con from 0.00294534 to 0.00294534
Heightened Def Con from 0.00294538 to 0.00294538
Heightened Def Con from 0.00294539 to 0.00294539
Heightened Def Con from 0.00295047 to 0.00295047
Heightened Def Con from 0.00296056 to 0.00296056
Heightened Def Con from 0.00296057 to 0.00296058
Heightened Def Con from 0.00296558 to 0.00296558
Heightened Def Con from 0.00297058 to 0.00297059
Heightened Def Con from 0.00297059 to 0.00297059
Heightened Def Con from 0.0029706 to 0.0029706
Heightened Def Con from 0.00298055 to 0.00298056
Heightened Def Con from 0.00298073 to 0.00298073
Heightened Def Con from 0.00298081 to 0.00298082
Heightened Def Con from 0.00298083 to 0.00298083
Heightened Def Con from 0.00298569 to 0.00298569
Heightened Def Con from 0.0029859 to 0.0029859
Heightened Def Con from 0.00298593 to 0.00298593
Heightened Def Con from 0.00298593 to 0.00298594
Heightened Def Con from 0.00299108 to 0.00299108
Heightened Def Con from 0.00299109 to 0.00299109
Heightened Def Con from 0.00299613 to 0.00299613
Heightened Def Con from 0.00299621 to 0.00299621
Heightened Def Con from 0.00299625 to 0.00299625
Heightened Def Con from 0.0030012 to 0.0030012
Heightened Def Con from 0.0030013 to 0.0030013
Heightened Def Con from 0.00300642 to 0.00300642
Heightened Def Con from 0.00300642 to 0.00300642
Heightened Def Con from 0.00301149 to 0.00301149
Heightened Def Con from 0.00301149 to 0.00301149
Heightened Def Con from 0.0030115 to 0.0030115
Heightened Def Con from 0.0030115 to 0.0030115
Heightened Def Con from 0.00302167 to 0.00302167
Heightened Def Con from 0.00302167 to 0.00302168
Heightened Def Con from 0.0030266 to 0.0030266
Heightened Def Con from 0.00303189 to 0.00303189
Heightened Def Con from 0.00304207 to 0.00304207
Heightened Def Con from 0.00304208 to 0.00304208
Heightened Def Con from 0.00304695 to 0.00304695
Heightened Def Con from 0.00305231 to 0.00305231
Heightened Def Con from 0.00305232 to 0.00305232
Heightened Def Con from 0.00305232 to 0.00305232
Heightened Def Con from 0.00305725 to 0.00305725
Heightened Def Con from 0.00305745 to 0.00305745
Heightened Def Con from 0.00305749 to 0.00305749
Heightened Def Con from 0.00305751 to 0.00305751
Heightened Def Con from 0.00306757 to 0.00306757
Heightened Def Con from 0.00306769 to 0.0030677
Heightened Def Con from 0.00307793 +to 0.00307794
Heightened Def Con from 0.00308285 to 0.00308285
Heightened Def Con from 0.00308303 to 0.00308303
Heightened Def Con from 0.00308824 to 0.00308824
Heightened Def Con from 0.00309306 to 0.00309306
Heightened Def Con from 0.00309326 to 0.00309326
Heightened Def Con from 0.00309328 to 0.00309329
Heightened Def Con from 0.00309336 to 0.00309336
Heightened Def Con from 0.00309828 to 0.00309829
Heightened Def Con from 0.00309831 to 0.00309831
Heightened Def Con from 0.00310304 to 0.00310304
Heightened Def Con from 0.00310834 to 0.00310835
Heightened Def Con from 0.00311877 to 0.00311877
Heightened Def Con from 0.00312372 to 0.00312372
Heightened Def Con from 0.00312394 to 0.00312394
Heightened Def Con from 0.00312868 to 0.00312868
Heightened Def Con from 0.00312868 to 0.00312868
Heightened Def Con from 0.00312874 to 0.00312874
Heightened Def Con from 0.00312874 to 0.00312874
Heightened Def Con from 0.00312891 to 0.00312891
Heightened Def Con from 0.00312891 to 0.00312891
Heightened Def Con from 0.00313383 to 0.00313384
Heightened Def Con from 0.00313385 to 0.00313385
Heightened Def Con from 0.00313403 to 0.00313403
Heightened Def Con from 0.00313404 to 0.00313404
Heightened Def Con from 0.00313404 to 0.00313405
Heightened Def Con from 0.00313901 to 0.00313902
Heightened Def Con from 0.00313916 to 0.00313916
Heightened Def Con from 0.00313919 to 0.00313919
Heightened Def Con from 0.0031443 to 0.00314431
Heightened Def Con from 0.00314923 to 0.00314923
Heightened Def Con from 0.00315456 to 0.00315456
Heightened Def Con from 0.00316476 to 0.00316476
Heightened Def Con from 0.00316477 to 0.00316477
Heightened Def Con from 0.00316477 to 0.00316478
Heightened Def Con from 0.00316478 to 0.00316478
Heightened Def Con from 0.00316478 to 0.00316479
Heightened Def Con from 0.0031699 to 0.0031699
Heightened Def Con from 0.00317501 to 0.00317501
Heightened Def Con from 0.00317503 to 0.00317504
Heightened Def Con from 0.00317504 to 0.00317504
Heightened Def Con from 0.00318023 to 0.00318023
Heightened Def Con from 0.00318506 to 0.00318506
Heightened Def Con from 0.00318506 to 0.00318506
Heightened Def Con from 0.00318508 to 0.00318508
Heightened Def Con from 0.00318508 to 0.00318508
Heightened Def Con from 0.00318508 to 0.00318508
Heightened Def Con from 0.00318526 to 0.00318527
Heightened Def Con from 0.00320062 to 0.00320062
Heightened Def Con from 0.00320067 to 0.00320068
Heightened Def Con from 0.00320068 to 0.00320068
Heightened Def Con from 0.00320072 to 0.00320072
Heightened Def Con from 0.00320571 to 0.00320571
Heightened Def Con from 0.00320571 to 0.00320571
Heightened Def Con from 0.00321081 to 0.00321082
Heightened Def Con from 0.00321082 to 0.00321083
Heightened Def Con from 0.00322082 to 0.00322082
Heightened Def Con from 0.00322095 to 0.00322095
Heightened Def Con from 0.00322111 to 0.00322111
Heightened Def Con from 0.00322114 to 0.00322115
Heightened Def Con from 0.00322611 to 0.00322611
Heightened Def Con from 0.0032262 to 0.00322621
Heightened Def Con from 0.00322621 to 0.00322621
Heightened Def Con from 0.00323133 to 0.00323133
Heightened Def Con from 0.00323134 to 0.00323135
Heightened Def Con from 0.00323137 to 0.00323138
Heightened Def Con from 0.00323645 to 0.00323645
Heightened Def Con from 0.00323647 to 0.00323647
Heightened Def Con from 0.00323647 to 0.00323647
Heightened Def Con from 0.00324158 to 0.00324158
Heightened Def Con from 0.00324163 to 0.00324163
Heightened Def Con from 0.00324671 to 0.00324671
Heightened Def Con from 0.00324671 to 0.00324671
Heightened Def Con from 0.00324674 to 0.00324674
Heightened Def Con from 0.0032517 to 0.00325171
Heightened Def Con from 0.0032518 to 0.00325181
Heightened Def Con from 0.00325183 to 0.00325183
Heightened Def Con from 0.00325186 to 0.00325186
Heightened Def Con from 0.0032519 to 0.0032519
Heightened Def Con from 0.00325695 to 0.00325696
Heightened Def Con from 0.00325696 to 0.00325696
Heightened Def Con from 0.00325698 to 0.00325698
Heightened Def Con from 0.00325698 to 0.00325698
Heightened Def Con from 0.00325699 to 0.00325699
Heightened Def Con from 0.00326211 to 0.00326211
Heightened Def Con from 0.00326721 to 0.00326721
Heightened Def Con from 0.00326722 to 0.00326723
Heightened Def Con from 0.00326723 to 0.00326723
Heightened Def Con from 0.00327235 to 0.00327235
Heightened Def Con from 0.00327235 to 0.00327235
Heightened Def Con from 0.00327726 to 0.00327726
Heightened Def Con from 0.00327747 to 0.00327747
Heightened Def Con from 0.00328239 to 0.00328239
Heightened Def Con from 0.00328243 to 0.00328243
Heightened Def Con from 0.00328268 to 0.00328268
Heightened Def Con from 0.00328757 to 0.00328757
Heightened Def Con from 0.0032877 to 0.0032877
Heightened Def Con from 0.00328771 to 0.00328771
Heightened Def Con from 0.00329286 to 0.00329286
Heightened Def Con from 0.00329288 to 0.00329289
Heightened Def Con from 0.0032929 to 0.0032929
Heightened Def Con from 0.00329797 to 0.00329797
Heightened Def Con from 0.00329797 to 0.00329797
Heightened Def Con from 0.0033028 to 0.0033028
Heightened Def Con from 0.0033028 to 0.00330281
Heightened Def Con from 0.00330794 to 0.00330794
Heightened Def Con from 0.00330794 to 0.00330795
Heightened Def Con from 0.00330811 to 0.00330811
Heightened Def Con from 0.00330812 to 0.00330813
Heightened Def Con from 0.00330814 to 0.00330814
Heightened Def Con from 0.00331326 to 0.00331326
Heightened Def Con from 0.00331839 to 0.0033184
Heightened Def Con from 0.0033184 to 0.00331841
Heightened Def Con from 0.0033235 to 0.00332351
Heightened Def Con from 0.00332862 to 0.00332863
Heightened Def Con from 0.00332863 to 0.00332863
Heightened Def Con from 0.00332863 to 0.00332863
Heightened Def Con from 0.00333355 to 0.00333355
Heightened Def Con from 0.00333376 to 0.00333376
Heightened Def Con from 0.0033386 to 0.0033386
Heightened Def Con from 0.00333861 to 0.00333861
Heightened Def Con from 0.0033388 to 0.0033388
Heightened Def Con from 0.00333882 to 0.00333882
Heightened Def Con from 0.00334393 to 0.00334393
Heightened Def Con from 0.003344 to 0.003344
Heightened Def Con from 0.00334401 to 0.00334401
Heightened Def Con from 0.00334872 to 0.00334872
Heightened Def Con from 0.00334901 to 0.00334902
Heightened Def Con from 0.00335387 to 0.00335387
Heightened Def Con from 0.00335391 to 0.00335391
Heightened Def Con from 0.00335892 to 0.00335892
Heightened Def Con from 0.00335892 to 0.00335892
Heightened Def Con from 0.00335904 to 0.00335905
Heightened Def Con from 0.00335924 to 0.00335924
Heightened Def Con from 0.00335928 to 0.00335928
Heightened Def Con from 0.00336926 to 0.00336926
Heightened Def Con from 0.00336949 to 0.0033695
Heightened Def Con from 0.00337449 to 0.00337449
Heightened Def Con from 0.00337449 to 0.00337449
Heightened Def Con from 0.00337963 to 0.00337964
Heightened Def Con from 0.00338467 to 0.00338467
Heightened Def Con from 0.00338953 to 0.00338953
Heightened Def Con from 0.00338983 to 0.00338983
Heightened Def Con from 0.00338984 to 0.00338984
Heightened Def Con from 0.00339473 to 0.00339474
Heightened Def Con from 0.00340009 to 0.00340009
Heightened Def Con from 0.00340009 to 0.00340009
Heightened Def Con from 0.0034001 to 0.0034001
Heightened Def Con from 0.0034001 to 0.0034001
Heightened Def Con from 0.0034001 to 0.0034001
Heightened Def Con from 0.0034001 to 0.0034001
Heightened Def Con from 0.0034001 to 0.0034001
Heightened Def Con from 0.00340522 to 0.00340522
Heightened Def Con from 0.00340524 to 0.00340524
Heightened Def Con from 0.00340524 to 0.00340524
Heightened Def Con from 0.00340528 to 0.00340528
Heightened Def Con from 0.00341034 to 0.00341034
Heightened Def Con from 0.00341035 to 0.00341035
Heightened Def Con from 0.00341035 to 0.00341035
Heightened Def Con from 0.00341544 to 0.00341545
Heightened Def Con from 0.00341545 to 0.00341545
Heightened Def Con from 0.0034155 to 0.0034155
Heightened Def Con from 0.0034155 to 0.0034155
Heightened Def Con from 0.00342055 to 0.00342055
Heightened Def Con from 0.00342543 to 0.00342544
Heightened Def Con from 0.00343078 to 0.00343078
Heightened Def Con from 0.0034359 to 0.00343591
Heightened Def Con from 0.00344092 to 0.00344092
Heightened Def Con from 0.00344092 to 0.00344092
Heightened Def Con from 0.00344093 to 0.00344093
Heightened Def Con from 0.00344608 to 0.00344608
Heightened Def Con from 0.00344608 to 0.00344608
Heightened Def Con from 0.00344608 to 0.00344609
Heightened Def Con from 0.00345623 to 0.00345623
Heightened Def Con from 0.00346129 to 0.00346129
Heightened Def Con from 0.00346621 to 0.00346621
Heightened Def Con from 0.00346621 to 0.00346622
Heightened Def Con from 0.00347153 to 0.00347153
Heightened Def Con from 0.00347586 to 0.00347586
Heightened Def Con from 0.00348149 to 0.00348149
Heightened Def Con from 0.00348151 to 0.00348151
Heightened Def Con from 0.00348637 to 0.00348637
Heightened Def Con from 0.00348637 to 0.00348638
Heightened Def Con from 0.00348654 to 0.00348654
Heightened Def Con from 0.0034917 to 0.0034917
Heightened Def Con from 0.0034917 to 0.0034917
Heightened Def Con from 0.0034917 to 0.00349171
Heightened Def Con from 0.00349682 to 0.00349682
Heightened Def Con from 0.00350194 to 0.00350195
Heightened Def Con from 0.00350714 to 0.00350714
Heightened Def Con from 0.00350714 to 0.00350714
Heightened Def Con from 0.00351218 to 0.00351218
Heightened Def Con from 0.00351218 to 0.00351219
Heightened Def Con from 0.00351221 to 0.00351221
Heightened Def Con from 0.00351221 to 0.00351221
Heightened Def Con from 0.00351223 to 0.00351224
Heightened Def Con from 0.00351732 to 0.00351732
Heightened Def Con from 0.00352736 to 0.00352736
Heightened Def Con from 0.00352757 to 0.00352757
Heightened Def Con from 0.00352758 to 0.00352758
Heightened Def Con from 0.00352758 to 0.00352758
Heightened Def Con from 0.00352767 to 0.00352767
Heightened Def Con from 0.00353271 to 0.00353271
Heightened Def Con from 0.00354282 to 0.00354283
Heightened Def Con from 0.00354796 to 0.00354797
Heightened Def Con from 0.00354804 to 0.00354805
Heightened Def Con from 0.0035531 to 0.0035531
Heightened Def Con from 0.00355311 to 0.00355311
Heightened Def Con from 0.00355312 to 0.00355312
Heightened Def Con from 0.00355802 to 0.00355802
Heightened Def Con from 0.00355826 to 0.00355826
Heightened Def Con from 0.0035583 to 0.0035583
Heightened Def Con from 0.00355831 to 0.00355831
Heightened Def Con from 0.00356337 to 0.00356337
Heightened Def Con from 0.00356338 to 0.00356338
Heightened Def Con from 0.00356338 to 0.00356338
Heightened Def Con from 0.00356826 to 0.00356826
Heightened Def Con from 0.00357364 to 0.00357364
Heightened Def Con from 0.00357871 to 0.00357872
Heightened Def Con from 0.00358352 to 0.00358352
Heightened Def Con from 0.00359401 to 0.00359402
[...]
Heightened Def Con from 0.00414572 to 0.00414573
Heightened Def Con from 0.00415082 to 0.00415083
Heightened Def Con from 0.00417104 to 0.00417104
Heightened Def Con from 0.00417126 to 0.00417127
Heightened Def Con from 0.00417127 to 0.00417127
Heightened Def Con from 0.00417128 to 0.00417128
Heightened Def Con from 0.00417129 to 0.0041713
Heightened Def Con from 0.00417133 to 0.00417133
Heightened Def Con from 0.00417629 to 0.0041763
Heightened Def Con from 0.00417631 to 0.00417631
Heightened Def Con from 0.00418148 to 0.00418149
Heightened Def Con from 0.00418655 to 0.00418655
Heightened Def Con from 0.00418655 to 0.00418656
Heightened Def Con from 0.00418656 to 0.00418656
Heightened Def Con from 0.00419678 to 0.00419678
Heightened Def Con from 0.00420178 to 0.00420179
Heightened Def Con from 0.0042068 to 0.0042068
Heightened Def Con from 0.00420683 to 0.00420683
Heightened Def Con from 0.00421179 to 0.00421179
Heightened Def Con from 0.00421203 to 0.00421203
Heightened Def Con from 0.00421701 to 0.00421701
Heightened Def Con from 0.00421702 to 0.00421702
Heightened Def Con from 0.00421702 to 0.00421702
Heightened Def Con from 0.0042219 to 0.00422191
Heightened Def Con from 0.00422706 to 0.00422707
Heightened Def Con from 0.00422707 to 0.00422707
Heightened Def Con from 0.00422709 to 0.00422709
Heightened Def Con from 0.00422711 to 0.00422711
Heightened Def Con from 0.00422711 to 0.00422711
Heightened Def Con from 0.00422713 to 0.00422713
Heightened Def Con from 0.00422713 to 0.00422713
Heightened Def Con from 0.00423189 to 0.00423189
Heightened Def Con from 0.00423714 to 0.00423715
Heightened Def Con from 0.00423726 to 0.00423726
Heightened Def Con from 0.00423726 to 0.00423726
Heightened Def Con from 0.00423727 to 0.00423727
Heightened Def Con from 0.00423729 to 0.00423729
Heightened Def Con from 0.00423729 to 0.00423729
Heightened Def Con from 0.00423729 to 0.0042373
Heightened Def Con from 0.00424238 to 0.00424238
Heightened Def Con from 0.00424239 to 0.00424239
Heightened Def Con from 0.00424247 to 0.00424247
Heightened Def Con from 0.00424247 to 0.00424248
Heightened Def Con from 0.0042524 to 0.0042524
Heightened Def Con from 0.00425769 to 0.0042577
Heightened Def Con from 0.00426278 to 0.00426278
Heightened Def Con from 0.00426795 to 0.00426795
Heightened Def Con from 0.00426797 to 0.00426797
Heightened Def Con from 0.00427278 to 0.00427278
Heightened Def Con from 0.00427279 to 0.0042728
Heightened Def Con from 0.00427282 to 0.00427282
Heightened Def Con from 0.00427299 to 0.004273
Heightened Def Con from 0.00427818 to 0.00427818
Heightened Def Con from 0.00427818 to 0.00427819
Heightened Def Con from 0.0042833 to 0.0042833
Heightened Def Con from 0.00428836 to 0.00428836
Heightened Def Con from 0.00428836 to 0.00428837
Heightened Def Con from 0.00429349 to 0.00429349
Heightened Def Con from 0.0042935 to 0.0042935
Heightened Def Con from 0.00429354 to 0.00429354
Heightened Def Con from 0.00429855 to 0.00429855
Heightened Def Con from 0.00430365 to 0.00430365
Heightened Def Con from 0.00430365 to 0.00430365
Heightened Def Con from 0.00430368 to 0.00430368
Heightened Def Con from 0.00430368 to 0.00430368
Heightened Def Con from 0.0043037 to 0.0043037
Heightened Def Con from 0.00430372 to 0.00430372
Heightened Def Con from 0.00430876 to 0.00430877
Heightened Def Con from 0.00430878 to 0.00430878
Heightened Def Con from 0.0043088 to 0.0043088
Heightened Def Con from 0.0043088 to 0.0043088
Heightened Def Con from 0.00430882 to 0.00430882
Heightened Def Con from 0.0043137 to 0.0043137
Heightened Def Con from 0.0043137 to 0.00431371
Heightened Def Con from 0.00431385 to 0.00431385
Heightened Def Con from 0.00431392 to 0.00431392
Heightened Def Con from 0.00431392 to 0.00431392
Heightened Def Con from 0.00431393 to 0.00431393
Heightened Def Con from 0.00431395 to 0.00431395
Heightened Def Con from 0.00431398 to 0.00431398
Heightened Def Con from 0.00431903 to 0.00431904
Heightened Def Con from 0.00431906 to 0.00431907
Heightened Def Con from 0.00431907 to 0.00431907
Heightened Def Con from 0.00432417 to 0.00432417
Heightened Def Con from 0.00432922 to 0.00432922
Heightened Def Con from 0.00433445 to 0.00433445
Heightened Def Con from 0.00433446 to 0.00433447
Heightened Def Con from 0.00433951 to 0.00433951
Heightened Def Con from 0.00433951 to 0.00433951
Heightened Def Con from 0.00433955 to 0.00433955
Heightened Def Con from 0.00433956 to 0.00433956
Heightened Def Con from 0.00434445 to 0.00434445
Heightened Def Con from 0.00434445 to 0.00434445
Heightened Def Con from 0.00434451 to 0.00434451
Heightened Def Con from 0.00434469 to 0.0043447
Heightened Def Con from 0.00434974 to 0.00434975
Heightened Def Con from 0.00434975 to 0.00434975
Heightened Def Con from 0.00435467 to 0.00435467
Heightened Def Con from 0.00435487 to 0.00435487
Heightened Def Con from 0.0043599 to 0.0043599
Heightened Def Con from 0.00436491 to 0.00436491
Heightened Def Con from 0.00437011 to 0.00437011
Heightened Def Con from 0.00437502 to 0.00437502
Heightened Def Con from 0.00437503 to 0.00437503
Heightened Def Con from 0.0043751 to 0.00437511
Heightened Def Con from 0.00437511 to 0.00437511
Heightened Def Con from 0.00437524 to 0.00437525
Heightened Def Con from 0.00438038 to 0.00438038
Heightened Def Con from 0.00438555 to 0.00438555
Heightened Def Con from 0.00439574 to 0.00439574
Heightened Def Con from 0.00439575 to 0.00439575
Heightened Def Con from 0.00439575 to 0.00439575
Heightened Def Con from 0.00440074 to 0.00440075
Heightened Def Con from 0.00440077 to 0.00440077
Heightened Def Con from 0.00440077 to 0.00440077
Heightened Def Con from 0.00440077 to 0.00440077
Heightened Def Con from 0.00440081 to 0.00440081
Heightened Def Con from 0.00440081 to 0.00440081
Heightened Def Con from 0.00440081 to 0.00440081
Heightened Def Con from 0.00440081 to 0.00440081
Heightened Def Con from 0.00440566 to 0.00440566
Heightened Def Con from 0.00440567 to 0.00440567
Heightened Def Con from 0.00440569 to 0.00440569
Heightened Def Con from 0.0044059 to 0.00440591
Heightened Def Con from 0.00441099 to 0.00441099
Heightened Def Con from 0.004411 to 0.004411
Heightened Def Con from 0.004411 to 0.004411
Heightened Def Con from 0.00442086 to 0.00442086
Heightened Def Con from 0.00442112 to 0.00442113
Heightened Def Con from 0.00442114 to 0.00442115
Heightened Def Con from 0.00442115 to 0.00442115
Heightened Def Con from 0.00442627 to 0.00442627
Heightened Def Con from 0.00443137 to 0.00443137
Heightened Def Con from 0.00443137 to 0.00443138
Heightened Def Con from 0.00443138 to 0.00443138
Heightened Def Con from 0.00443635 to 0.00443635
Heightened Def Con from 0.00443642 to 0.00443642
Heightened Def Con from 0.00443643 to 0.00443643
Heightened Def Con from 0.00444152 to 0.00444152
Heightened Def Con from 0.00444153 to 0.00444153
Heightened Def Con from 0.00444661 to 0.00444662
Heightened Def Con from 0.00444666 to 0.00444666
Heightened Def Con from 0.00445226 to 0.00445226
Heightened Def Con from 0.00445685 to 0.00445685
Heightened Def Con from 0.00446171 to 0.00446171
Heightened Def Con from 0.00446171 to 0.00446171
Heightened Def Con from 0.00446195 to 0.00446195
Heightened Def Con from 0.00446681 to 0.00446681
Heightened Def Con from 0.00447726 to 0.00447726
Heightened Def Con from 0.00448219 to 0.0044822
Heightened Def Con from 0.00448727 to 0.00448727
Heightened Def Con from 0.00448735 to 0.00448735
Heightened Def Con from 0.00448746 to 0.00448747
Heightened Def Con from 0.0044926 to 0.0044926
Heightened Def Con from 0.00449759 to 0.00449759
Heightened Def Con from 0.00450271 to 0.00450271
Heightened Def Con from 0.00450767 to 0.00450768
Heightened Def Con from 0.00450786 to 0.00450786
Heightened Def Con from 0.00450787 to 0.00450788
Heightened Def Con from 0.0045079 to 0.0045079
Heightened Def Con from 0.0045079 to 0.0045079
Heightened Def Con from 0.00451297 to 0.00451297
Heightened Def Con from 0.00451297 to 0.00451297
Heightened Def Con from 0.00451297 to 0.00451298
Heightened Def Con from 0.00451733 to 0.00451733
Heightened Def Con from 0.00451803 to 0.00451803
Heightened Def Con from 0.00452821 to 0.00452822
Heightened Def Con from 0.00452823 to 0.00452823
Heightened Def Con from 0.00452827 to 0.00452828
Heightened Def Con from 0.00453841 to 0.00453842
Heightened Def Con from 0.00453849 to 0.0045385
Heightened Def Con from 0.00454357 to 0.00454357
Heightened Def Con from 0.00454357 to 0.00454358
Heightened Def Con from 0.00454358 to 0.00454358
Heightened Def Con from 0.00454359 to 0.00454359
Heightened Def Con from 0.00454841 to 0.00454841
Heightened Def Con from 0.00454851 to 0.00454852
Heightened Def Con from 0.00454865 to 0.00454865
Heightened Def Con from 0.00454865 to 0.00454865
Heightened Def Con from 0.00454865 to 0.00454865
Heightened Def Con from 0.00454867 to 0.00454867
Heightened Def Con from 0.00454893 to 0.00454894
Heightened Def Con from 0.00455371 to 0.00455372
Heightened Def Con from 0.00455372 to 0.00455372
Heightened Def Con from 0.00455372 to 0.00455373
Heightened Def Con from 0.00455871 to 0.00455872
Heightened Def Con from 0.00455884 to 0.00455884
Heightened Def Con from 0.00455887 to 0.00455887
Heightened Def Con from 0.00456397 to 0.00456397
Heightened Def Con from 0.00456398 to 0.00456398
Heightened Def Con from 0.00456889 to 0.00456889
Heightened Def Con from 0.0045691 to 0.0045691
Heightened Def Con from 0.00456917 to 0.00456917
Heightened Def Con from 0.00457412 to 0.00457412
Heightened Def Con from 0.00457423 to 0.00457423
Heightened Def Con from 0.00457423 to 0.00457424
Heightened Def Con from 0.00457424 to 0.00457424
Heightened Def Con from 0.00458413 to 0.00458413
Heightened Def Con from 0.00458413 to 0.00458413
Heightened Def Con from 0.00458435 to 0.00458435
Heightened Def Con from 0.00458924 to 0.00458924
Heightened Def Con from 0.00458943 to 0.00458943
Heightened Def Con from 0.00458948 to 0.00458948
Heightened Def Con from 0.00459456 to 0.00459457
Heightened Def Con from 0.00459457 to 0.00459457
Heightened Def Con from 0.00459459 to 0.00459459
Heightened Def Con from 0.00459975 to 0.00459976
Heightened Def Con from 0.00459976 to 0.00459976
Heightened Def Con from 0.00460472 to 0.00460472
Heightened Def Con from 0.00460982 to 0.00460982
Heightened Def Con from 0.00461882 to 0.00461882
Heightened Def Con from 0.00461978 to 0.00461979
Heightened Def Con from 0.00461999 to 0.00461999
Heightened Def Con from 0.00461999 to 0.00461999
Heightened Def Con from 0.00461999 to 0.00461999
Heightened Def Con from 0.00462005 to 0.00462005
Heightened Def Con from 0.00462006 to 0.00462006
Heightened Def Con from 0.00463022 to 0.00463022
Heightened Def Con from 0.00463022 to 0.00463022
Heightened Def Con from 0.00463022 to 0.00463022
Heightened Def Con from 0.00463028 to 0.00463028
Heightened Def Con from 0.00463092 to 0.00463092
Heightened Def Con from 0.00463534 to 0.00463534
Heightened Def Con from 0.00464045 to 0.00464045
Heightened Def Con from 0.00464046 to 0.00464046
Heightened Def Con from 0.00464049 to 0.00464049
Heightened Def Con from 0.00464049 to 0.00464049
Heightened Def Con from 0.00464558 to 0.00464558
Heightened Def Con from 0.00464558 to 0.00464559
Heightened Def Con from 0.00464561 to 0.00464561
Heightened Def Con from 0.00465584 to 0.00465585
Heightened Def Con from 0.00465585 to 0.00465585
Heightened Def Con from 0.00466102 to 0.00466103
Heightened Def Con from 0.00466574 to 0.00466574
Heightened Def Con from 0.00466575 to 0.00466575
Heightened Def Con from 0.00467106 to 0.00467106
Heightened Def Con from 0.00467112 to 0.00467112
Heightened Def Con from 0.00467113 to 0.00467113
Heightened Def Con from 0.00467601 to 0.00467601
Heightened Def Con from 0.00467626 to 0.00467627
Heightened Def Con from 0.00467627 to 0.00467627
Heightened Def Con from 0.00467627 to 0.00467627
Heightened Def Con from 0.00467627 to 0.00467628
Heightened Def Con from 0.00468127 to 0.00468127
Heightened Def Con from 0.00468141 to 0.00468141
Heightened Def Con from 0.00468146 to 0.00468146
Heightened Def Con from 0.00468633 to 0.00468633
Heightened Def Con from 0.00468653 to 0.00468653
Heightened Def Con from 0.00468653 to 0.00468654
Heightened Def Con from 0.00469166 to 0.00469167
Heightened Def Con from 0.00469171 to 0.00469171
Heightened Def Con from 0.00469171 to 0.00469171
Heightened Def Con from 0.00469644 to 0.00469644
Heightened Def Con from 0.00469662 to 0.00469662
Heightened Def Con from 0.00469666 to 0.00469666
Heightened Def Con from 0.00470156 to 0.00470157
Heightened Def Con from 0.00470179 to 0.00470179
Heightened Def Con from 0.00470179 to 0.00470179
Heightened Def Con from 0.00470671 to 0.00470671
Heightened Def Con from 0.00470671 to 0.00470671
Heightened Def Con from 0.00471211 to 0.00471211
Heightened Def Con from 0.00471211 to 0.00471212
Heightened Def Con from 0.00471714 to 0.00471714
Heightened Def Con from 0.00471715 to 0.00471716
Heightened Def Con from 0.00472225 to 0.00472225
Heightened Def Con from 0.00473222 to 0.00473222
Heightened Def Con from 0.00473222 to 0.00473222
Heightened Def Con from 0.00473244 to 0.00473244
Heightened Def Con from 0.00473251 to 0.00473251
Heightened Def Con from 0.0047372 to 0.0047372
Heightened Def Con from 0.00473721 to 0.00473722
Heightened Def Con from 0.0047373 to 0.0047373
Heightened Def Con from 0.00474238 to 0.00474238
Heightened Def Con from 0.00474265 to 0.00474265
Heightened Def Con from 0.00474772 to 0.00474772
Heightened Def Con from 0.00474773 to 0.00474773
Heightened Def Con from 0.00474773 to 0.00474774
Heightened Def Con from 0.00475263 to 0.00475263
Heightened Def Con from 0.00475264 to 0.00475264
Heightened Def Con from 0.00475281 to 0.00475281
Heightened Def Con from 0.00475288 to 0.00475288
Heightened Def Con from 0.00475777 to 0.00475777
Heightened Def Con from 0.00475798 to 0.00475798
Heightened Def Con from 0.00475798 to 0.00475798
Heightened Def Con from 0.0047631 to 0.0047631
Heightened Def Con from 0.00476311 to 0.00476311
Heightened Def Con from 0.00476319 to 0.00476319
Heightened Def Con from 0.00476799 to 0.00476799
Heightened Def Con from 0.00476806 to 0.00476806
Heightened Def Con from 0.0047681 to 0.0047681
Heightened Def Con from 0.0047681 to 0.0047681
Heightened Def Con from 0.0047681 to 0.0047681
Heightened Def Con from 0.0047681 to 0.00476811
Heightened Def Con from 0.00476813 to 0.00476813
Heightened Def Con from 0.00477311 to 0.00477311
Heightened Def Con from 0.00477318 to 0.00477318
Heightened Def Con from 0.00477826 to 0.00477827
Heightened Def Con from 0.00477827 to 0.00477827
Heightened Def Con from 0.00477827 to 0.00477827
Heightened Def Con from 0.00478828 to 0.00478828
Heightened Def Con from 0.00478851 to 0.00478851
Heightened Def Con from 0.00478851 to 0.00478851
Heightened Def Con from 0.00479345 to 0.00479346
Heightened Def Con from 0.00479346 to 0.00479346
Heightened Def Con from 0.00479871 to 0.00479871
Heightened Def Con from 0.00479877 to 0.00479878
Heightened Def Con from 0.00479878 to 0.00479879
Heightened Def Con from 0.0048139 to 0.0048139
Heightened Def Con from 0.0048139 to 0.0048139
Heightened Def Con from 0.00481413 to 0.00481413
Heightened Def Con from 0.00481418 to 0.00481419
Heightened Def Con from 0.00481925 to 0.00481926
Heightened Def Con from 0.00482433 to 0.00482433
Heightened Def Con from 0.00482436 to 0.00482436
Heightened Def Con from 0.00482439 to 0.00482439
Heightened Def Con from 0.00482927 to 0.00482927
Heightened Def Con from 0.00482927 to 0.00482927
Heightened Def Con from 0.00482942 to 0.00482943
Heightened Def Con from 0.00482943 to 0.00482943
Heightened Def Con from 0.00482944 to 0.00482944
Heightened Def Con from 0.00483433 to 0.00483433
Heightened Def Con from 0.00483433 to 0.00483434
Heightened Def Con from 0.00483453 to 0.00483453
Heightened Def Con from 0.00483453 to 0.00483454
Heightened Def Con from 0.00483953 to 0.00483953
Heightened Def Con from 0.00483956 to 0.00483956
Heightened Def Con from 0.00483957 to 0.00483957
Heightened Def Con from 0.00483957 to 0.00483957
Heightened Def Con from 0.00483957 to 0.00483958
Heightened Def Con from 0.00484432 to 0.00484432
Heightened Def Con from 0.00484432 to 0.00484432
Heightened Def Con from 0.00485474 to 0.00485474
Heightened Def Con from 0.00485475 to 0.00485475
Heightened Def Con from 0.00485475 to 0.00485476
Heightened Def Con from 0.00485985 to 0.00485986
Heightened Def Con from 0.00485986 to 0.00485986
Heightened Def Con from 0.00485988 to 0.00485988
Heightened Def Con from 0.00485988 to 0.00485988
Heightened Def Con from 0.00486498 to 0.00486499
Heightened Def Con from 0.00486499 to 0.00486499
Heightened Def Con from 0.00486503 to 0.00486503
Heightened Def Con from 0.00486503 to 0.00486504
Heightened Def Con from 0.00487499 to 0.004875
Heightened Def Con from 0.004875 to 0.004875
Heightened Def Con from 0.004875 to 0.00487501
Heightened Def Con from 0.00487521 to 0.00487521
Heightened Def Con from 0.00488028 to 0.00488029
Heightened Def Con from 0.00488029 to 0.00488029
Heightened Def Con from 0.00488031 to 0.00488032
Heightened Def Con from 0.00488544 to 0.00488544
Heightened Def Con from 0.00488549 to 0.0048855
Heightened Def Con from 0.00489546 to 0.00489546
Heightened Def Con from 0.00489546 to 0.00489546
Heightened Def Con from 0.00489567 to 0.00489568
Heightened Def Con from 0.00490029 to 0.00490029
Heightened Def Con from 0.00490079 to 0.00490079
Heightened Def Con from 0.00490082 to 0.00490082
Heightened Def Con from 0.00490082 to 0.00490083
Heightened Def Con from 0.00491103 to 0.00491103
Heightened Def Con from 0.00491106 to 0.00491106
Heightened Def Con from 0.00491106 to 0.00491106
Heightened Def Con from 0.00491106 to 0.00491107
Heightened Def Con from 0.00492645 to 0.00492645
Heightened Def Con from 0.00493158 to 0.00493158
Heightened Def Con from 0.00494149 to 0.00494149
Heightened Def Con from 0.00494149 to 0.00494149
Heightened Def Con from 0.0049415 to 0.0049415
Heightened Def Con from 0.00494155 to 0.00494156
Heightened Def Con from 0.00494687 to 0.00494687
Heightened Def Con from 0.00494689 to 0.00494689
Heightened Def Con from 0.00494689 to 0.0049469
Heightened Def Con from 0.00494695 to 0.00494695
Heightened Def Con from 0.004952 to 0.004952
Heightened Def Con from 0.004952 to 0.004952
Heightened Def Con from 0.004952 to 0.004952
Heightened Def Con from 0.004952 to 0.004952
Heightened Def Con from 0.004952 to 0.004952
Heightened Def Con from 0.004952 to 0.004952
Heightened Def Con from 0.004952 to 0.00495201
Heightened Def Con from 0.00495201 to 0.00495201
Heightened Def Con from 0.00496226 to 0.00496226
Heightened Def Con from 0.00496226 to 0.00496226
Heightened Def Con from 0.00496229 to 0.00496229
Heightened Def Con from 0.0049623 to 0.0049623
Heightened Def Con from 0.0049623 to 0.0049623
Heightened Def Con from 0.0049623 to 0.0049623
Heightened Def Con from 0.00496718 to 0.00496718
Heightened Def Con from 0.00496718 to 0.00496718
Heightened Def Con from 0.00496718 to 0.00496718
Heightened Def Con from 0.00496741 to 0.00496741
Heightened Def Con from 0.00496741 to 0.00496741
Heightened Def Con from 0.00497231 to 0.00497232
Heightened Def Con from 0.00497254 to 0.00497254
Heightened Def Con from 0.00497254 to 0.00497254
Heightened Def Con from 0.00497256 to 0.00497257
Heightened Def Con from 0.00497765 to 0.00497766
Heightened Def Con from 0.00497766 to 0.00497767
Heightened Def Con from 0.00498276 to 0.00498277
Heightened Def Con from 0.00498279 to 0.00498279
Heightened Def Con from 0.0049828 to 0.0049828
Heightened Def Con from 0.00498797 to 0.00498797
Heightened Def Con from 0.00499305 to 0.00499305
Heightened Def Con from 0.00499305 to 0.00499306

Date: Thu May 12 19:24:35 2022
Total elapsed time: 5.863 seconds.

tnom = 27
temp = 27
method = modified trap
totiter = 809953
traniter = 809934
tranpoints = 142054
accept = 89239
rejected = 55110
matrix size = 38
fillins = 97
solver = Normal
Matrix Compiler1: 8.60 KB object code size  1.5/0.8/[0.5]
Matrix Compiler2: 4.76 KB object code size  0.5/0.5/[0.3]

