Circuit: * D:\ECE_Projects\Music_Visualizer\Misc\LM3915_Chain_Adj_Ground.asc

Instance "m:u2:6": Length shorter than recommended for a level 2 MOSFET.
Instance "m:u2:5": Length shorter than recommended for a level 2 MOSFET.
Instance "m:u2:4": Length shorter than recommended for a level 2 MOSFET.
Instance "m:u2:3": Length shorter than recommended for a level 2 MOSFET.
Instance "m:u2:2": Length shorter than recommended for a level 2 MOSFET.
Instance "m:u2:1": Length shorter than recommended for a level 2 MOSFET.
Direct Newton iteration failed to find .op point.  (Use ".option noopiter" to skip.)
Starting Gmin stepping
Gmin = 10
Gmin = 1.07374
Gmin = 0.115292
Gmin = 0.0123794
Gmin = 0.00132923
Gmin = 0.000142725
Gmin = 1.5325e-005
vernier = 0.5
Gmin = 3.52689e-006
vernier = 0.666667
vernier = 0.888888
Gmin = 7.39785e-007
vernier = 1
Gmin = 8.6905e-008
Gmin = 9.33136e-009
Gmin = 1.00195e-009
Gmin = 1.07583e-010
Gmin = 1.15517e-011
Gmin = 1.24035e-012
Gmin = 1.33182e-013
Gmin = 0
Gmin stepping succeeded in finding the operating point.


Date: Sun Sep 17 12:00:16 2023
Total elapsed time: 2.786 seconds.

tnom = 27
temp = 27
method = modified trap
totiter = 30883
traniter = 30067
tranpoints = 10237
accept = 7296
rejected = 2941
matrix size = 215
fillins = 16
solver = Normal
Thread vector: 118.5/26.0[4] 18.3/8.7[4] 76.0/34.0[4] 1.7/4.6[1]  2592/500
Matrix Compiler1: 14.14 KB object code size  8.2/3.9/[1.7]
Matrix Compiler2: 20.20 KB object code size  5.5/6.1/[1.1]

