Circuit: * D:\ECE_Projects\Music_Visualizer\Misc\LM3915_Base_CircuitV2.asc

Instance "m:u2:6": Length shorter than recommended for a level 2 MOSFET.
Instance "m:u2:5": Length shorter than recommended for a level 2 MOSFET.
Instance "m:u2:4": Length shorter than recommended for a level 2 MOSFET.
Instance "m:u2:3": Length shorter than recommended for a level 2 MOSFET.
Instance "m:u2:2": Length shorter than recommended for a level 2 MOSFET.
Instance "m:u2:1": Length shorter than recommended for a level 2 MOSFET.
Direct Newton iteration for .op point succeeded.

Date: Tue May 31 15:55:06 2022
Total elapsed time: 0.849 seconds.

tnom = 27
temp = 27
method = modified trap
totiter = 25137
traniter = 25117
tranpoints = 9016
accept = 6399
rejected = 2617
matrix size = 77
fillins = 9
solver = Normal
Thread vector: 21.6/13.9[2] 4.8/7.9[1] 12.2/9.7[2] 0.6/3.2[1]  2592/500
Matrix Compiler1: 4.54 KB object code size  2.1/1.1/[0.5]
Matrix Compiler2: 6.98 KB object code size  1.2/2.0/[0.6]

