Circuit: * D:\ECE_Projects\Music_Visualizer\Misc\LM3915_Chain_Adj_Ground.asc

Instance "m:u2:6": Length shorter than recommended for a level 2 MOSFET.
Instance "m:u2:5": Length shorter than recommended for a level 2 MOSFET.
Instance "m:u2:4": Length shorter than recommended for a level 2 MOSFET.
Instance "m:u2:3": Length shorter than recommended for a level 2 MOSFET.
Instance "m:u2:2": Length shorter than recommended for a level 2 MOSFET.
Instance "m:u2:1": Length shorter than recommended for a level 2 MOSFET.
Direct Newton iteration failed to find .op point.  (Use ".option noopiter" to skip.)
Starting Gmin stepping
Gmin = 10
Gmin = 1.07374
Gmin = 0.115292
Gmin = 0.0123794
Gmin = 0.00132923
Gmin = 0.000142725
Gmin = 1.5325e-005
vernier = 0.5
Gmin = 3.52689e-006
vernier = 0.666667
vernier = 0.888888
Gmin = 7.39785e-007
vernier = 1
Gmin = 8.6905e-008
Gmin = 9.33136e-009
Gmin = 1.00195e-009
Gmin = 1.07583e-010
Gmin = 1.15517e-011
Gmin = 1.24035e-012
Gmin = 1.33182e-013
Gmin = 0
Gmin stepping succeeded in finding the operating point.


Date: Thu Jun 23 19:23:30 2022
Total elapsed time: 20.487 seconds.

tnom = 27
temp = 27
method = modified trap
totiter = 279386
traniter = 278570
tranpoints = 93089
accept = 64729
rejected = 28360
matrix size = 215
fillins = 16
solver = Normal
Thread vector: 89.4/33.4[4] 24.8/19.9[4] 113.4/52.4[4] 1.3/4.7[1]  2592/500
Matrix Compiler1: 14.14 KB object code size  12.4/5.5/[2.4]
Matrix Compiler2: 20.20 KB object code size  6.0/6.9/[1.7]

