Circuit: * D:\ECE_Projects\Music_Visualizer\Misc\LM3915_Base_Circuit.asc

Instance "m:u2:6": Length shorter than recommended for a level 2 MOSFET.
Instance "m:u2:5": Length shorter than recommended for a level 2 MOSFET.
Instance "m:u2:4": Length shorter than recommended for a level 2 MOSFET.
Instance "m:u2:3": Length shorter than recommended for a level 2 MOSFET.
Instance "m:u2:2": Length shorter than recommended for a level 2 MOSFET.
Instance "m:u2:1": Length shorter than recommended for a level 2 MOSFET.
Direct Newton iteration for .op point succeeded.

Date: Thu May 26 15:13:27 2022
Total elapsed time: 0.774 seconds.

tnom = 27
temp = 27
method = modified trap
totiter = 29194
traniter = 29174
tranpoints = 9996
accept = 7146
rejected = 2850
matrix size = 78
fillins = 9
solver = Normal
Thread vector: 23.4/10.9[2] 4.9/4.4[2] 9.3/5.6[2] 0.3/2.7[1]  2592/500
Matrix Compiler1: 4.62 KB object code size  2.4/1.2/[0.6]
Matrix Compiler2: 7.07 KB object code size  1.3/1.8/[0.4]

