Circuit: * D:\ECE_Projects\Music_Visualizer\Misc\LM3915_Chain.asc

Instance "m:u2:6": Length shorter than recommended for a level 2 MOSFET.
Instance "m:u2:5": Length shorter than recommended for a level 2 MOSFET.
Instance "m:u2:4": Length shorter than recommended for a level 2 MOSFET.
Instance "m:u2:3": Length shorter than recommended for a level 2 MOSFET.
Instance "m:u2:2": Length shorter than recommended for a level 2 MOSFET.
Instance "m:u2:1": Length shorter than recommended for a level 2 MOSFET.
Direct Newton iteration failed to find .op point.  (Use ".option noopiter" to skip.)
Starting Gmin stepping
Gmin = 10
Gmin = 1.07374
Gmin = 0.115292
Gmin = 0.0123794
Gmin = 0.00132923
Gmin = 0.000142725
Gmin = 1.5325e-005
vernier = 0.5
Gmin = 3.52689e-006
vernier = 0.666667
vernier = 0.888888
Gmin = 7.39785e-007
vernier = 1
Gmin = 8.6905e-008
Gmin = 9.33136e-009
Gmin = 1.00195e-009
Gmin = 1.07583e-010
Gmin = 1.15517e-011
Gmin = 1.24035e-012
Gmin = 1.33182e-013
Gmin = 0
Gmin stepping succeeded in finding the operating point.


Date: Sat May 28 16:45:22 2022
Total elapsed time: 3.273 seconds.

tnom = 27
temp = 27
method = modified trap
totiter = 32177
traniter = 31361
tranpoints = 10565
accept = 7525
rejected = 3040
matrix size = 217
fillins = 22
solver = Normal
Thread vector: 66.7/47.6[4] 16.1/8.3[4] 74.8/38.9[4] 1.4/6.1[1]  2592/500
Matrix Compiler1: 14.60 KB object code size  7.8/3.3/[1.5]
Matrix Compiler2: 20.65 KB object code size  5.3/5.9/[2.1]

