Circuit: * D:\ECE_Projects\Music_Visualizer\Misc\LM3915_Base_CircuitV3.asc

Direct Newton iteration for .op point succeeded.

Date: Sun Sep 17 11:55:07 2023
Total elapsed time: 0.405 seconds.

tnom = 27
temp = 27
method = modified trap
totiter = 16145
traniter = 16126
tranpoints = 4495
accept = 3510
rejected = 985
matrix size = 38
fillins = 1
solver = Normal
Thread vector: 21.6/4.8[2] 1.6/4.8[1] 3.9/4.5[1] 0.2/1.6[1]  2592/500
Matrix Compiler1: 1.85 KB object code size  0.7/0.3/[0.2]
Matrix Compiler2: 3.29 KB object code size  0.3/0.5/[0.3]

