Circuit: * D:\ECE_Projects\Music_Visualizer\Misc\LM3915_Base_Circuit.asc

Instance "m:u2:6": Length shorter than recommended for a level 2 MOSFET.
Instance "m:u2:5": Length shorter than recommended for a level 2 MOSFET.
Instance "m:u2:4": Length shorter than recommended for a level 2 MOSFET.
Instance "m:u2:3": Length shorter than recommended for a level 2 MOSFET.
Instance "m:u2:2": Length shorter than recommended for a level 2 MOSFET.
Instance "m:u2:1": Length shorter than recommended for a level 2 MOSFET.
Direct Newton iteration for .op point succeeded.

Date: Sun May 08 20:48:10 2022
Total elapsed time: 1.390 seconds.

tnom = 27
temp = 27
method = modified trap
totiter = 68631
traniter = 68611
tranpoints = 24201
accept = 16778
rejected = 7423
matrix size = 78
fillins = 9
solver = Normal
Thread vector: 15.9/10.8[2] 5.4/4.5[2] 4.9/3.3[2] 0.4/3.1[1]  2592/500
Matrix Compiler1: 4.62 KB object code size  2.4/1.2/[0.5]
Matrix Compiler2: 7.07 KB object code size  1.2/1.9/[0.6]

