Circuit: * D:\ECE_Projects\Music_Visualizer\Misc\LM3915_Base_CircuitV3.asc

Direct Newton iteration for .op point succeeded.

Date: Mon Oct 10 19:35:01 2022
Total elapsed time: 0.384 seconds.

tnom = 27
temp = 27
method = modified trap
totiter = 16145
traniter = 16126
tranpoints = 4495
accept = 3510
rejected = 985
matrix size = 38
fillins = 1
solver = Normal
Thread vector: 14.0/4.7[2] 1.1/1.9[1] 2.6/2.5[1] 0.2/1.9[1]  2592/500
Matrix Compiler1: 1.85 KB object code size  0.5/0.3/[0.2]
Matrix Compiler2: 3.29 KB object code size  0.3/0.4/[0.2]

