Circuit: * D:\ECE_Projects\Music_Visualizer\Misc\LM3915_Test.asc

Instance "m:u2:6": Length shorter than recommended for a level 2 MOSFET.
Instance "m:u2:5": Length shorter than recommended for a level 2 MOSFET.
Instance "m:u2:4": Length shorter than recommended for a level 2 MOSFET.
Instance "m:u2:3": Length shorter than recommended for a level 2 MOSFET.
Instance "m:u2:2": Length shorter than recommended for a level 2 MOSFET.
Instance "m:u2:1": Length shorter than recommended for a level 2 MOSFET.
Direct Newton iteration failed to find .op point.  (Use ".option noopiter" to skip.)
Starting Gmin stepping
Gmin = 10
Gmin = 1.07374
Gmin = 0.115292
Gmin = 0.0123794
Gmin = 0.00132923
Gmin = 0.000142725
Gmin = 1.5325e-005
vernier = 0.5
Gmin = 3.52689e-006
vernier = 0.666667
vernier = 0.888888
Gmin = 7.39785e-007
vernier = 1
Gmin = 8.6905e-008
Gmin = 9.33136e-009
Gmin = 1.00195e-009
Gmin = 1.07583e-010
Gmin = 1.15517e-011
Gmin = 1.24035e-012
Gmin = 1.33182e-013
Gmin = 0
Gmin stepping succeeded in finding the operating point.


Date: Thu May 26 15:56:11 2022
Total elapsed time: 1.161 seconds.

tnom = 27
temp = 27
method = modified trap
totiter = 28307
traniter = 27562
tranpoints = 9576
accept = 6826
rejected = 2750
matrix size = 101
fillins = 11
solver = Normal
Thread vector: 18.6/12.1[4] 7.8/4.6[4] 25.4/11.5[4] 0.4/3.7[1]  2592/500
Matrix Compiler1: 6.38 KB object code size  3.3/1.6/[0.7]
Matrix Compiler2: 9.32 KB object code size  2.5/2.8/[0.5]

