Circuit: * D:\ECE_Projects\Music_Visualizer\Misc\LM3915_Base_Circuit.asc

Instance "m:u2:6": Length shorter than recommended for a level 2 MOSFET.
Instance "m:u2:5": Length shorter than recommended for a level 2 MOSFET.
Instance "m:u2:4": Length shorter than recommended for a level 2 MOSFET.
Instance "m:u2:3": Length shorter than recommended for a level 2 MOSFET.
Instance "m:u2:2": Length shorter than recommended for a level 2 MOSFET.
Instance "m:u2:1": Length shorter than recommended for a level 2 MOSFET.
Direct Newton iteration for .op point succeeded.

Date: Sun May 08 20:31:04 2022
Total elapsed time: 6.871 seconds.

tnom = 27
temp = 27
method = modified trap
totiter = 370404
traniter = 370384
tranpoints = 122763
accept = 83633
rejected = 39130
matrix size = 80
fillins = 9
solver = Normal
Thread vector: 23.3/10.8[2] 4.4/4.5[1] 10.9/5.6[2] 0.3/7.9[1]  2592/500
Matrix Compiler1: 4.65 KB object code size  2.4/1.3/[0.6]
Matrix Compiler2: 7.17 KB object code size  1.4/2.1/[0.4]

