Circuit: * D:\ECE_Projects\Music_Visualizer\Misc\LM3915_Base_Circuit.asc

Instance "m:u2:6": Length shorter than recommended for a level 2 MOSFET.
Instance "m:u2:5": Length shorter than recommended for a level 2 MOSFET.
Instance "m:u2:4": Length shorter than recommended for a level 2 MOSFET.
Instance "m:u2:3": Length shorter than recommended for a level 2 MOSFET.
Instance "m:u2:2": Length shorter than recommended for a level 2 MOSFET.
Instance "m:u2:1": Length shorter than recommended for a level 2 MOSFET.
Direct Newton iteration for .op point succeeded.

Date: Mon May 09 13:10:34 2022
Total elapsed time: 0.736 seconds.

tnom = 27
temp = 27
method = modified trap
totiter = 29556
traniter = 29536
tranpoints = 10086
accept = 7186
rejected = 2900
matrix size = 78
fillins = 9
solver = Normal
Thread vector: 11.4/7.7[2] 2.2/2.6[1] 4.2/3.4[2] 0.3/2.0[1]  2592/500
Matrix Compiler1: 4.62 KB object code size  1.2/0.6/[0.3]
Matrix Compiler2: 7.07 KB object code size  0.7/0.8/[0.4]

