Circuit: * D:\ECE_Projects\Music_Visualizer\Misc\LM3915_Base_CircuitV2.asc

Instance "m:u2:6": Length shorter than recommended for a level 2 MOSFET.
Instance "m:u2:5": Length shorter than recommended for a level 2 MOSFET.
Instance "m:u2:4": Length shorter than recommended for a level 2 MOSFET.
Instance "m:u2:3": Length shorter than recommended for a level 2 MOSFET.
Instance "m:u2:2": Length shorter than recommended for a level 2 MOSFET.
Instance "m:u2:1": Length shorter than recommended for a level 2 MOSFET.
Direct Newton iteration for .op point succeeded.

Date: Mon Oct 10 16:10:46 2022
Total elapsed time: 0.874 seconds.

tnom = 27
temp = 27
method = modified trap
totiter = 29856
traniter = 29836
tranpoints = 10151
accept = 7224
rejected = 2927
matrix size = 77
fillins = 9
solver = Normal
Thread vector: 35.6/14.2[2] 2.9/3.9[1] 7.0/6.4[2] 0.4/1.9[1]  2592/500
Matrix Compiler1: 4.54 KB object code size  1.5/0.7/[0.3]
Matrix Compiler2: 6.98 KB object code size  0.8/0.9/[0.4]

