Circuit: * D:\ECE_Projects\Music_Visualizer\Misc\LM3915_Chain_Adj_Ground.asc

Instance "m:u2:6": Length shorter than recommended for a level 2 MOSFET.
Instance "m:u2:5": Length shorter than recommended for a level 2 MOSFET.
Instance "m:u2:4": Length shorter than recommended for a level 2 MOSFET.
Instance "m:u2:3": Length shorter than recommended for a level 2 MOSFET.
Instance "m:u2:2": Length shorter than recommended for a level 2 MOSFET.
Instance "m:u2:1": Length shorter than recommended for a level 2 MOSFET.
Direct Newton iteration failed to find .op point.  (Use ".option noopiter" to skip.)
Starting Gmin stepping
Gmin = 10
Gmin = 1.07374
Gmin = 0.115292
Gmin = 0.0123794
Gmin = 0.00132923
Gmin = 0.000142725
Gmin = 1.5325e-005
vernier = 0.5
Gmin = 3.52689e-006
vernier = 0.666667
vernier = 0.888888
Gmin = 7.39785e-007
vernier = 1
Gmin = 8.6905e-008
Gmin = 9.33136e-009
Gmin = 1.00195e-009
Gmin = 1.07583e-010
Gmin = 1.15517e-011
Gmin = 1.24035e-012
Gmin = 1.33182e-013
Gmin = 0
Gmin stepping succeeded in finding the operating point.


Date: Fri Oct 27 02:42:33 2023
Total elapsed time: 2.362 seconds.

tnom = 27
temp = 27
method = modified trap
totiter = 29017
traniter = 28218
tranpoints = 9829
accept = 7014
rejected = 2815
matrix size = 216
fillins = 22
solver = Normal
Thread vector: 81.8/25.4[4] 16.1/8.8[4] 69.8/23.5[4] 1.2/7.2[1]  2592/500
Matrix Compiler1: 14.55 KB object code size  7.4/3.4/[1.7]
Matrix Compiler2: 20.58 KB object code size  5.1/6.1/[1.5]

