Circuit: * D:\ECE_Projects\Music_Visualizer\Misc\LT1054_Inverter_and_regulator.asc

Per .tran options, skipping operating point for transient analysis.
Heightened Def Con from 8.84958e-005 to 8.84968e-005
Heightened Def Con from 9.56813e-005 to 9.56823e-005
Heightened Def Con from 0.000128073 to 0.000128074
Heightened Def Con from 0.000167593 to 0.000167594
Heightened Def Con from 0.000324835 to 0.000324836
Heightened Def Con from 0.000332144 to 0.000332145
Heightened Def Con from 0.000529348 to 0.000529349
Heightened Def Con from 0.000565464 to 0.000565465
Heightened Def Con from 0.000765735 to 0.000765736

Date: Wed Mar 01 20:39:05 2023
Total elapsed time: 1.669 seconds.

tnom = 27
temp = 27
method = modified trap
totiter = 429487
traniter = 429487
tranpoints = 124412
accept = 91037
rejected = 33384
matrix size = 19
fillins = 9
solver = Normal
Matrix Compiler1: 1.20 KB object code size  0.3/0.2/[0.1]
Matrix Compiler2: 1.50 KB object code size  0.1/0.2/[0.1]

