Circuit: * D:\ECE_Projects\Music_Visualizer\Misc\NegativeVoltageDoubler555.asc

Direct Newton iteration for .op point succeeded.

Date: Wed Jun 22 23:47:03 2022
Total elapsed time: 6.384 seconds.

tnom = 27
temp = 27
method = modified trap
totiter = 1738250
traniter = 1738242
tranpoints = 406111
accept = 306563
rejected = 99548
matrix size = 22
fillins = 6
solver = Normal
Matrix Compiler1: 1.09 KB object code size  0.2/0.1/[0.1]
Matrix Compiler2: 1.52 KB object code size  0.1/0.2/[0.1]

