Circuit: * D:\ECE_Projects\Music_Visualizer\Misc\NegativeVoltageDoubler555.asc

Direct Newton iteration for .op point succeeded.

Date: Fri Jun 24 23:27:26 2022
Total elapsed time: 8.233 seconds.

tnom = 27
temp = 27
method = modified trap
totiter = 1735664
traniter = 1735656
tranpoints = 405513
accept = 306086
rejected = 99427
matrix size = 22
fillins = 6
solver = Normal
Matrix Compiler1: 1.09 KB object code size  0.3/0.1/[0.1]
Matrix Compiler2: off  [0.1]/0.2/0.2

