Circuit: * D:\ECE_Projects\Music_Visualizer\Misc\Villard_Cascade_Negtive_Voltage_Multiplier.asc

Direct Newton iteration for .op point succeeded.

Date: Fri May 13 15:30:40 2022
Total elapsed time: 3.149 seconds.

tnom = 27
temp = 27
method = modified trap
totiter = 418034
traniter = 418001
tranpoints = 172044
accept = 133325
rejected = 38719
matrix size = 25
fillins = 23
solver = Normal
Matrix Compiler1: 3.32 KB object code size  0.9/0.4/[0.2]
Matrix Compiler2: 2.61 KB object code size  0.6/0.3/[0.2]

