Circuit: * D:\ECE_Projects\Music_Visualizer\Misc\Villard_Cascade_Negtive_Voltage_Multiplier.asc

.OP point found by inspection.

Date: Wed Jun 22 16:14:55 2022
Total elapsed time: 0.588 seconds.

tnom = 27
temp = 27
method = modified trap
totiter = 104079
traniter = 104079
tranpoints = 44968
accept = 35560
rejected = 9408
matrix size = 10
fillins = 6
solver = Normal
Matrix Compiler1: 836 bytes object code size  0.2/0.1/[0.1]
Matrix Compiler2: 844 bytes object code size  0.1/0.1/[0.1]

