Circuit: * D:\ECE_Projects\Music_Visualizer\Combined_Circuits\Entire_Circuit\Draft1.asc

Direct Newton iteration for .op point succeeded.

Date: Fri Jul 15 00:05:13 2022
Total elapsed time: 0.077 seconds.

tnom = 27
temp = 27
method = modified trap
totiter = 3480
traniter = 3477
tranpoints = 1725
accept = 1528
rejected = 197
matrix size = 8
fillins = 0
solver = Normal
Matrix Compiler1: 174 bytes object code size  0.1/0.0/[0.0]
Matrix Compiler2: 438 bytes object code size  0.1/0.1/[0.0]

