Circuit: * D:\ECE_Projects\Music_Visualizer\Combined_Circuits\Entire_Circuit\Full_Visualizer.asc

WARNING: Less than two connections to node NC_02.  This node is used by Q:U22:1.
WARNING: Less than two connections to node NC_01.  This node is used by Q:U22:2.
WARNING: Less than two connections to node NC_05.  This node is used by Q:U23:1.
WARNING: Less than two connections to node NC_04.  This node is used by Q:U23:2.
WARNING: Less than two connections to node NC_08.  This node is used by Q:U24:1.
WARNING: Less than two connections to node NC_07.  This node is used by Q:U24:2.
Early termination of direct N-R iteration.
Direct Newton iteration failed to find .op point.  (Use ".option noopiter" to skip.)
Starting Gmin stepping
Gmin = 10
vernier = 0.5
vernier = 0.25
vernier = 0.125
vernier = 0.0625
Gmin = 8.61953
vernier = 0.03125
vernier = 0.015625
vernier = 0.0078125
vernier = 0.00390625
Gmin = 8.47038
vernier = 0.00195313
vernier = 0.000976563
vernier = 0.000488281
Gmin = 0
Gmin stepping failed

Starting source stepping with srcstepmethod=0
Source Step = 3.0303%
Source Step = 33.3333%
Source Step = 63.6364%
Source Step = 93.9394%
Source stepping succeeded in finding the operating point.


Date: Thu Sep 22 16:30:55 2022
Total elapsed time: 31.480 seconds.

tnom = 27
temp = 27
method = modified trap
totiter = 84824
traniter = 83061
tranpoints = 23329
accept = 16350
rejected = 6979
matrix size = 879
fillins = 3936
solver = Normal
Thread vector: 300.8/70.2[4] 59.8/21.1[4] 261.5/82.7[4] 10.4/13.4[1]  2592/500
Matrix Compiler1: 417.16 KB object code size  187.6/99.2/[46.5]
Matrix Compiler2: 140.80 KB object code size  127.1/115.4/[28.1]

