Circuit: * D:\ECE_Projects\Music_Visualizer\Spectrum_Filters\Final_Filters\AllFiltersBuf_NonBuf.asc

WARNING: Less than two connections to node VI.  This node is used by V1.
WARNING: Less than two connections to node VI2.  This node is used by V8.
Early termination of direct N-R iteration.
Direct Newton iteration failed to find .op point.  (Use ".option noopiter" to skip.)
Starting Gmin stepping
Gmin = 10
vernier = 0.5
vernier = 0.25
vernier = 0.125
vernier = 0.0625
Gmin = 8.61953
vernier = 0.03125
vernier = 0.015625
vernier = 0.0078125
vernier = 0.00390625
Gmin = 8.47038
vernier = 0.00195313
vernier = 0.000976563
vernier = 0.000488281
Gmin = 0
Gmin stepping failed

Starting source stepping with srcstepmethod=0
Source Step = 3.0303%
Source Step = 33.3333%
Source Step = 63.6364%
Source Step = 93.9394%
Source stepping succeeded in finding the operating point.


Date: Wed Sep 13 20:13:03 2023
Total elapsed time: 10.271 seconds.

tnom = 27
temp = 27
method = trap
totiter = 1677
traniter = 0
tranpoints = 0
accept = 0
rejected = 0
matrix size = 1314
fillins = 9620
solver = Normal
Matrix Compiler1:   58656 opcodes
Matrix Compiler2: 270.28 KB object code size  70.0/52.0/[39.4]

