Circuit: * D:\ECE_Projects\Music_Visualizer\Spectrum_Filters\Final_Filters\FinalLowMidrange.asc

Early termination of direct N-R iteration.
Direct Newton iteration failed to find .op point.  (Use ".option noopiter" to skip.)
Starting Gmin stepping
Gmin = 10
vernier = 0.5
Gmin = 1.86414
vernier = 0.25
vernier = 0.125
vernier = 0.0625
vernier = 0.03125
Gmin = 1.74088
vernier = 0.015625
vernier = 0.0078125
vernier = 0.00390625
vernier = 0.00195313
Gmin = 1.72987
vernier = 0.00260417
Gmin = 1.71977
vernier = 0.00347222
vernier = 0.00173611
vernier = 0.000868055
vernier = 0.00115741
Gmin = 1.71691
vernier = 0.00154321
vernier = 0.000771604
vernier = 0.000578703
Gmin = 1.71336
vernier = 0.000771604
Gmin = 1.71038
vernier = 0.00102881
vernier = 0.000514403
Gmin = 0
Gmin stepping failed

Starting source stepping with srcstepmethod=0
Source Step = 3.0303%
Source Step = 33.3333%
Source Step = 63.6364%
Source Step = 93.9394%
Source stepping succeeded in finding the operating point.


Date: Sat May 21 22:13:14 2022
Total elapsed time: 0.714 seconds.

tnom = 27
temp = 27
method = trap
totiter = 4337
traniter = 0
tranpoints = 0
accept = 0
rejected = 0
matrix size = 84
fillins = 661
solver = Normal
Matrix Compiler1:    2781 opcodes
Matrix Compiler2: 18.09 KB object code size  3.1/2.4/[0.8]

