Circuit: * D:\ECE_Projects\Music_Visualizer\Spectrum_Filters\Final_Filters\FinalBassFilter.asc

Early termination of direct N-R iteration.
Direct Newton iteration failed to find .op point.  (Use ".option noopiter" to skip.)
Starting Gmin stepping
Gmin = 10
vernier = 0.5
Gmin = 1.86414
vernier = 0.25
vernier = 0.125
vernier = 0.0625
vernier = 0.03125
Gmin = 1.82123
vernier = 0.015625
vernier = 0.0078125
vernier = 0.00390625
vernier = 0.00195313
Gmin = 1.81856
vernier = 0.000976563
vernier = 0.000488281
Gmin = 0
Gmin stepping failed

Starting source stepping with srcstepmethod=0
Source Step = 3.0303%
Source Step = 33.3333%
Source Step = 63.6364%
Source Step = 93.9394%
Source stepping succeeded in finding the operating point.


Date: Thu Jun 23 22:11:35 2022
Total elapsed time: 0.325 seconds.

tnom = 27
temp = 27
method = trap
totiter = 1722
traniter = 0
tranpoints = 0
accept = 0
rejected = 0
matrix size = 85
fillins = 668
solver = Normal
Matrix Compiler1:    2862 opcodes
Matrix Compiler2: 18.29 KB object code size  4.5/3.0/[0.8]

