Circuit: * D:\ECE_Projects\Music_Visualizer\Spectrum_Filters\Final_Filters\FinalSubBassFilter.asc

Early termination of direct N-R iteration.
Direct Newton iteration failed to find .op point.  (Use ".option noopiter" to skip.)
Starting Gmin stepping
Gmin = 10
vernier = 0.5
vernier = 0.25
vernier = 0.125
vernier = 0.0625
Gmin = 8.61953
vernier = 0.03125
vernier = 0.015625
vernier = 0.0078125
vernier = 0.00390625
Gmin = 8.47038
vernier = 0.00195313
vernier = 0.000976563
vernier = 0.000488281
Gmin = 0
Gmin stepping failed

Starting source stepping with srcstepmethod=0
Source Step = 3.0303%
Source Step = 33.3333%
Source Step = 63.6364%
Source Step = 93.9394%
Source stepping succeeded in finding the operating point.


Date: Wed Jun 29 19:37:56 2022
Total elapsed time: 0.914 seconds.

tnom = 27
temp = 27
method = modified trap
totiter = 21407
traniter = 19773
tranpoints = 5802
accept = 3919
rejected = 1883
matrix size = 85
fillins = 511
solver = Normal
Thread vector: 14.3/8.5[2] 3.1/4.8[1] 5.4/3.6[2] 1.2/4.3[1]  2592/500
Matrix Compiler1: 53.88 KB object code size  16.2/7.5/[2.2]
Matrix Compiler2: 15.55 KB object code size  5.9/5.2/[2.7]

