Circuit: * D:\ECE_Projects\Music_Visualizer\Spectrum_Filters\Final_Filters\FinalBrillianceFilter.asc

Early termination of direct N-R iteration.
Direct Newton iteration failed to find .op point.  (Use ".option noopiter" to skip.)
Starting Gmin stepping
Gmin = 10
vernier = 0.5
vernier = 0.25
vernier = 0.125
vernier = 0.0625
Gmin = 8.61953
vernier = 0.03125
vernier = 0.015625
vernier = 0.0078125
vernier = 0.00390625
Gmin = 8.47038
vernier = 0.00195313
vernier = 0.000976563
vernier = 0.000488281
Gmin = 0
Gmin stepping failed

Starting source stepping with srcstepmethod=0
Source Step = 3.0303%
Source Step = 33.3333%
Source Step = 63.6364%
Source Step = 93.9394%
Source stepping succeeded in finding the operating point.


Date: Tue Oct 11 00:36:24 2022
Total elapsed time: 8.759 seconds.

tnom = 27
temp = 27
method = modified trap
totiter = 386377
traniter = 384727
tranpoints = 127872
accept = 87188
rejected = 40684
matrix size = 85
fillins = 486
solver = Normal
Thread vector: 14.2/5.7[2] 2.3/2.6[1] 5.1/3.7[2] 1.2/2.0[1]  2592/500
Matrix Compiler1: 47.98 KB object code size  7.7/3.9/[1.9]
Matrix Compiler2: 15.20 KB object code size  3.3/2.4/[1.9]

