Circuit: * D:\ECE_Projects\Music_Visualizer\Spectrum_Filters\Final_Filters\FinalPresenceFilter.asc

Early termination of direct N-R iteration.
Direct Newton iteration failed to find .op point.  (Use ".option noopiter" to skip.)
Starting Gmin stepping
Gmin = 10
vernier = 0.5
vernier = 0.25
vernier = 0.125
vernier = 0.0625
Gmin = 8.61953
vernier = 0.03125
vernier = 0.015625
vernier = 0.0078125
vernier = 0.00390625
Gmin = 8.47038
vernier = 0.00195313
vernier = 0.000976563
vernier = 0.000488281
Gmin = 0
Gmin stepping succeeded in finding the operating point.


Date: Tue Oct 11 00:27:07 2022
Total elapsed time: 0.232 seconds.

tnom = 27
temp = 27
method = trap
totiter = 1493
traniter = 0
tranpoints = 0
accept = 0
rejected = 0
matrix size = 85
fillins = 511
solver = Normal
Matrix Compiler1:    2838 opcodes
Matrix Compiler2: 15.59 KB object code size  2.7/2.1/[0.8]

