Circuit: * D:\ECE_Projects\Music_Visualizer\Spectrum_Filters\Final_Filters\FinalSubBassFilter.asc

Early termination of direct N-R iteration.
Direct Newton iteration failed to find .op point.  (Use ".option noopiter" to skip.)
Starting Gmin stepping
Gmin = 10
vernier = 0.5
vernier = 0.25
vernier = 0.125
vernier = 0.0625
Gmin = 8.61953
vernier = 0.03125
vernier = 0.015625
vernier = 0.0078125
vernier = 0.00390625
Gmin = 8.47038
vernier = 0.00195313
vernier = 0.000976563
vernier = 0.000488281
Gmin = 0
Gmin stepping failed

Starting source stepping with srcstepmethod=0
Source Step = 3.0303%
Source Step = 33.3333%
Source Step = 63.6364%
Source Step = 93.9394%
Source stepping succeeded in finding the operating point.


Date: Sun Jun 26 01:46:29 2022
Total elapsed time: 0.461 seconds.

tnom = 27
temp = 27
method = modified trap
totiter = 4380
traniter = 2731
tranpoints = 1294
accept = 1153
rejected = 141
matrix size = 84
fillins = 507
solver = Normal
Thread vector: 13.7/5.1[2] 2.1/2.6[1] 4.2/3.9[1] 1.5/2.0[1]  2592/500
Matrix Compiler1: 52.88 KB object code size  8.3/4.3/[2.5]
Matrix Compiler2:    1073 opcodes  2.9/[2.4]/3.2

