Circuit: * D:\ECE_Projects\Music_Visualizer\Spectrum_Filters\Final_Filters\FinalBrillianceFilter.asc

Early termination of direct N-R iteration.
Direct Newton iteration failed to find .op point.  (Use ".option noopiter" to skip.)
Starting Gmin stepping
Gmin = 10
vernier = 0.5
vernier = 0.25
vernier = 0.125
vernier = 0.0625
Gmin = 8.61953
vernier = 0.03125
vernier = 0.015625
vernier = 0.0078125
vernier = 0.00390625
Gmin = 8.47038
vernier = 0.00195313
vernier = 0.000976563
vernier = 0.000488281
Gmin = 0
Gmin stepping failed

Starting source stepping with srcstepmethod=0
Source Step = 3.0303%
Source Step = 33.3333%
Source Step = 63.6364%
Source Step = 93.9394%
Source stepping succeeded in finding the operating point.


Date: Mon Jun 06 19:17:23 2022
Total elapsed time: 0.874 seconds.

tnom = 27
temp = 27
method = modified trap
totiter = 9862
traniter = 8236
tranpoints = 3822
accept = 2594
rejected = 1228
matrix size = 84
fillins = 477
solver = Normal
Matrix Compiler1: 46.99 KB object code size  12.9/8.6/[4.0]
Matrix Compiler2: 14.95 KB object code size  3.1/6.6/[1.3]

