Circuit: * D:\ECE_Projects\Music_Visualizer\Spectrum_Filters\Final_Filters\FinalBrillianceFilter.asc

Early termination of direct N-R iteration.
Direct Newton iteration failed to find .op point.  (Use ".option noopiter" to skip.)
Starting Gmin stepping
Gmin = 10
vernier = 0.5
vernier = 0.25
vernier = 0.125
vernier = 0.0625
Gmin = 8.61953
vernier = 0.03125
vernier = 0.015625
vernier = 0.0078125
vernier = 0.00390625
Gmin = 8.47038
vernier = 0.00195313
vernier = 0.000976563
vernier = 0.000488281
Gmin = 0
Gmin stepping failed

Starting source stepping with srcstepmethod=0
Source Step = 3.0303%
Source Step = 33.3333%
Source Step = 63.6364%
Source Step = 93.9394%
Source stepping succeeded in finding the operating point.


Date: Wed Jun 29 20:04:12 2022
Total elapsed time: 0.836 seconds.

tnom = 27
temp = 27
method = modified trap
totiter = 9483
traniter = 7833
tranpoints = 2737
accept = 2039
rejected = 698
matrix size = 85
fillins = 486
solver = Normal
Thread vector: 13.2/5.9[2] 2.5/2.6[1] 4.8/3.3[2] 1.2/2.6[1]  2592/500
Matrix Compiler1: 47.98 KB object code size  7.6/4.7/[1.9]
Matrix Compiler2:    1058 opcodes  2.9/[2.6]/2.9

