Circuit: * D:\ECE_Projects\Music_Visualizer\Spectrum_Filters\Final_Filters\FinalMidrangeFilter.asc

Early termination of direct N-R iteration.
Direct Newton iteration failed to find .op point.  (Use ".option noopiter" to skip.)
Starting Gmin stepping
Gmin = 10
vernier = 0.5
vernier = 0.25
vernier = 0.125
vernier = 0.0625
Gmin = 8.61953
vernier = 0.03125
vernier = 0.015625
vernier = 0.0078125
vernier = 0.00390625
Gmin = 8.47038
vernier = 0.00195313
vernier = 0.000976563
vernier = 0.000488281
Gmin = 0
Gmin stepping failed

Starting source stepping with srcstepmethod=0
Source Step = 3.0303%
Source Step = 33.3333%
Source Step = 63.6364%
Source Step = 93.9394%
Source stepping succeeded in finding the operating point.


Date: Wed Jun 29 19:19:43 2022
Total elapsed time: 0.855 seconds.

tnom = 27
temp = 27
method = modified trap
totiter = 5917
traniter = 4278
tranpoints = 2140
accept = 1568
rejected = 572
matrix size = 86
fillins = 519
solver = Normal
Thread vector: 13.0/6.6[2] 2.2/2.6[1] 8.7/4.4[2] 1.1/5.3[1]  2592/500
Matrix Compiler1: 53.84 KB object code size  8.5/4.3/[2.1]
Matrix Compiler2: 15.81 KB object code size  3.3/2.7/[2.1]

