Circuit: * D:\ECE_Projects\Music_Visualizer\Spectrum_Filters\Final_Filters\FinalUpperMidrangeFilter.asc

Early termination of direct N-R iteration.
Direct Newton iteration failed to find .op point.  (Use ".option noopiter" to skip.)
Starting Gmin stepping
Gmin = 10
vernier = 0.5
vernier = 0.25
vernier = 0.125
vernier = 0.0625
Gmin = 8.61953
vernier = 0.03125
vernier = 0.015625
vernier = 0.0078125
vernier = 0.00390625
Gmin = 8.47038
vernier = 0.00195313
vernier = 0.000976563
vernier = 0.000488281
Gmin = 0
Gmin stepping failed

Starting source stepping with srcstepmethod=0
Source Step = 3.0303%
Source Step = 33.3333%
Source Step = 63.6364%
Source Step = 93.9394%
Source stepping succeeded in finding the operating point.


Date: Wed Jun 29 19:58:16 2022
Total elapsed time: 0.755 seconds.

tnom = 27
temp = 27
method = modified trap
totiter = 9639
traniter = 7996
tranpoints = 2937
accept = 2210
rejected = 727
matrix size = 85
fillins = 511
solver = Normal
Thread vector: 13.1/11.2[2] 4.9/4.3[2] 4.9/4.2[2] 4.9/4.5[2]  2592/500
Matrix Compiler1: 53.88 KB object code size  14.0/8.7/[4.0]
Matrix Compiler2: 15.55 KB object code size  3.0/5.2/[2.0]

