Circuit: * D:\ECE_Projects\Music Visualizer\Bass Isolator.asc

.OP point found by inspection.
Ignoring empty pin current: Ix(u1:1)
Ignoring empty pin current: Ix(u1:2)
Ignoring empty pin current: Ix(u2:1)
Ignoring empty pin current: Ix(u2:2)
Ignoring empty pin current: Ix(u1:1)
Ignoring empty pin current: Ix(u1:2)
Ignoring empty pin current: Ix(u2:1)
Ignoring empty pin current: Ix(u2:2)

Date: Sat Apr 16 17:08:28 2022
Total elapsed time: 0.111 seconds.

tnom = 27
temp = 27
method = modified trap
totiter = 2164
traniter = 2164
tranpoints = 1068
accept = 1064
rejected = 4
matrix size = 8
fillins = 2
solver = Normal
Matrix Compiler1:      22 opcodes  0.1/[0.1]/0.1
Matrix Compiler2: 600 bytes object code size  0.1/0.1/[0.1]

