Circuit: * D:\ECE_Projects\Music_Visualizer\Spectrum_Filters\Draft1.asc

Direct Newton iteration failed to find .op point.  (Use ".option noopiter" to skip.)
Starting Gmin stepping
Gmin = 10
Gmin = 1.07374
Gmin = 0.115292
Gmin = 0.0123794
Gmin = 0.00132923
Gmin = 0.000142725
Gmin = 1.5325e-005
Gmin = 1.6455e-006
Gmin = 1.76685e-007
Gmin = 1.89714e-008
Gmin = 2.03704e-009
Gmin = 2.18725e-010
Gmin = 2.34854e-011
Gmin = 2.52173e-012
Gmin = 2.70769e-013
Gmin = 0
Gmin stepping succeeded in finding the operating point.


Date: Tue Apr 19 15:58:24 2022
Total elapsed time: 1.025 seconds.

tnom = 27
temp = 27
method = modified trap
totiter = 13868
traniter = 13436
tranpoints = 3345
accept = 2549
rejected = 796
matrix size = 34
fillins = 17
solver = Normal
Thread vector: 59.7/37.5[4] 10.0/12.5[1] 16.0/11.2[4] 0.2/5.2[1]  2592/500
Matrix Compiler1: 2.31 KB object code size  2.4/1.8/[0.8]
Matrix Compiler2: 3.60 KB object code size  2.7/2.2/[0.4]

