Circuit: * D:\ECE_Projects\Music_Visualizer\Spectrum_Filters\PresenceFilterSK.asc

.OP point found by inspection.
Ignoring empty pin current: Ix(u1:1)
Ignoring empty pin current: Ix(u1:2)
Ignoring empty pin current: Ix(u2:1)
Ignoring empty pin current: Ix(u2:2)
Ignoring empty pin current: Ix(u3:1)
Ignoring empty pin current: Ix(u3:2)
Ignoring empty pin current: Ix(u1:1)
Ignoring empty pin current: Ix(u1:2)
Ignoring empty pin current: Ix(u2:1)
Ignoring empty pin current: Ix(u2:2)
Ignoring empty pin current: Ix(u3:1)
Ignoring empty pin current: Ix(u3:2)

Date: Sat Apr 23 21:26:35 2022
Total elapsed time: 0.155 seconds.

tnom = 27
temp = 27
method = modified trap
totiter = 3034
traniter = 3034
tranpoints = 1518
accept = 1348
rejected = 170
matrix size = 11
fillins = 0
solver = Normal
Matrix Compiler1: 690 bytes object code size  0.2/0.1/[0.1]
Matrix Compiler2: off  [0.1]/0.2/0.1

