Circuit: * D:\ECE_Projects\Music_Visualizer\Spectrum_Filters\RealSubBaseFilter.asc

Early termination of direct N-R iteration.
Direct Newton iteration failed to find .op point.  (Use ".option noopiter" to skip.)
Starting Gmin stepping
Gmin = 10
vernier = 0.5
vernier = 0.25
vernier = 0.125
vernier = 0.0625
Gmin = 8.61953
vernier = 0.03125
vernier = 0.015625
vernier = 0.0078125
vernier = 0.00390625
Gmin = 8.47038
vernier = 0.00195313
vernier = 0.000976563
vernier = 0.000488281
Gmin = 0
Gmin stepping failed

Starting source stepping with srcstepmethod=0
Source Step = 3.0303%
Source Step = 33.3333%
Source Step = 63.6364%
Source Step = 93.9394%
Source stepping succeeded in finding the operating point.


Date: Fri May 13 15:54:48 2022
Total elapsed time: 0.558 seconds.

tnom = 27
temp = 27
method = modified trap
totiter = 6170
traniter = 4520
tranpoints = 2261
accept = 1563
rejected = 698
matrix size = 84
fillins = 507
solver = Normal
Thread vector: 6.3/5.6[2] 2.5/2.6[1] 5.3/3.3[2] 0.8/2.9[1]  2592/500
Matrix Compiler1: 52.88 KB object code size  8.1/6.2/[2.0]
Matrix Compiler2: 15.42 KB object code size  2.7/4.8/[0.9]

