Circuit: * D:\ECE_Projects\Music_Visualizer\Spectrum_Filters\SubBaseFilterSK.asc

.OP point found by inspection.
Ignoring empty pin current: Ix(u1:1)
Ignoring empty pin current: Ix(u1:2)
Ignoring empty pin current: Ix(u2:1)
Ignoring empty pin current: Ix(u2:2)
Ignoring empty pin current: Ix(u3:1)
Ignoring empty pin current: Ix(u3:2)
Ignoring empty pin current: Ix(u1:1)
Ignoring empty pin current: Ix(u1:2)
Ignoring empty pin current: Ix(u2:1)
Ignoring empty pin current: Ix(u2:2)
Ignoring empty pin current: Ix(u3:1)
Ignoring empty pin current: Ix(u3:2)

Date: Mon May 09 21:06:36 2022
Total elapsed time: 0.119 seconds.

tnom = 27
temp = 27
method = modified trap
totiter = 4234
traniter = 4234
tranpoints = 2118
accept = 1586
rejected = 532
matrix size = 11
fillins = 0
solver = Normal
Matrix Compiler1:      39 opcodes  0.2/[0.2]/0.3
Matrix Compiler2: off  [0.1]/0.5/0.3

