Circuit: * D:\ECE_Projects\Music_Visualizer\Spectrum_Filters\Final_Filters\Final_With_Buffer\FinalBassFilterBUF.asc

Early termination of direct N-R iteration.
Direct Newton iteration failed to find .op point.  (Use ".option noopiter" to skip.)
Starting Gmin stepping
Gmin = 10
vernier = 0.5
vernier = 0.25
vernier = 0.125
vernier = 0.0625
Gmin = 8.61953
vernier = 0.03125
vernier = 0.015625
vernier = 0.0078125
vernier = 0.00390625
Gmin = 8.47038
vernier = 0.00195313
vernier = 0.000976563
vernier = 0.000488281
Gmin = 0
Gmin stepping failed

Starting source stepping with srcstepmethod=0
Source Step = 3.0303%
Source Step = 33.3333%
Source Step = 63.6364%
Source Step = 93.9394%
Source stepping succeeded in finding the operating point.


Date: Tue Sep 12 16:50:23 2023
Total elapsed time: 0.490 seconds.

tnom = 27
temp = 27
method = trap
totiter = 1666
traniter = 0
tranpoints = 0
accept = 0
rejected = 0
matrix size = 110
fillins = 1021
solver = Normal
Matrix Compiler1:    6992 opcodes
Matrix Compiler2: 26.49 KB object code size  4.6/3.9/[2.0]

