Circuit: * D:\ECE_Projects\Music_Visualizer\Spectrum_Filters\Final_Filters\Final_With_Buffer\FinalLowMidrangeBUF.asc

Early termination of direct N-R iteration.
Direct Newton iteration failed to find .op point.  (Use ".option noopiter" to skip.)
Starting Gmin stepping
Gmin = 10
vernier = 0.5
Gmin = 1.86414
vernier = 0.25
vernier = 0.125
vernier = 0.0625
vernier = 0.03125
Gmin = 1.79363
vernier = 0.015625
vernier = 0.0078125
vernier = 0.00390625
vernier = 0.00195313
Gmin = 1.78926
vernier = 0.000976563
vernier = 0.000488281
Gmin = 0
Gmin stepping failed

Starting source stepping with srcstepmethod=0
Source Step = 3.0303%
Source Step = 33.3333%
Source Step = 63.6364%
Source Step = 93.9394%
Source stepping succeeded in finding the operating point.


Date: Fri Sep 15 17:44:05 2023
Total elapsed time: 1.547 seconds.

tnom = 27
temp = 27
method = modified trap
totiter = 7906
traniter = 6221
tranpoints = 2313
accept = 1846
rejected = 467
matrix size = 109
fillins = 1149
solver = Normal
Thread vector: 19.2/14.2[2] 2.9/3.2[1] 5.5/3.5[2] 2.1/14.5[1]  2592/500
Matrix Compiler1: 111.02 KB object code size  18.9/9.5/[4.1]
Matrix Compiler2: 28.38 KB object code size  9.3/6.1/[3.8]

