Circuit: * D:\ECE_Projects\Music_Visualizer\Spectrum_Filters\Final_Filters\Final_No_Buffer\Draft1.asc

WARNING: Less than two connections to node NC_01.  This node is used by V2.
Direct Newton iteration for .op point succeeded.

Date: Thu Oct 26 23:26:19 2023
Total elapsed time: 0.056 seconds.

tnom = 27
temp = 27
method = modified trap
totiter = 2095
traniter = 2088
tranpoints = 1045
accept = 1045
rejected = 0
matrix size = 11
fillins = 0
solver = Normal
Matrix Compiler1:      28 opcodes  0.1/[0.1]/0.1
Matrix Compiler2: off  [0.1]/0.1/0.1

