Circuit: * D:\ECE_Projects\Music_Visualizer\Spectrum_Filters\Final_Filters\Final_No_Buffer\FinalLowMidrange.asc

Early termination of direct N-R iteration.
Direct Newton iteration failed to find .op point.  (Use ".option noopiter" to skip.)
Starting Gmin stepping
Gmin = 10
vernier = 0.5
Gmin = 1.86414
vernier = 0.25
vernier = 0.125
vernier = 0.0625
vernier = 0.03125
Gmin = 1.79363
vernier = 0.015625
vernier = 0.0078125
vernier = 0.00390625
vernier = 0.00195313
Gmin = 1.78926
vernier = 0.000976563
vernier = 0.000488281
Gmin = 0
Gmin stepping succeeded in finding the operating point.


Date: Mon Sep 11 15:02:21 2023
Total elapsed time: 1.248 seconds.

tnom = 27
temp = 27
method = modified trap
totiter = 3670
traniter = 2126
tranpoints = 1064
accept = 1055
rejected = 9
matrix size = 109
fillins = 1149
solver = Normal
Thread vector: 20.7/9.9[2] 6.2/4.9[2] 6.2/3.7[2] 1.2/3.7[1]  2592/500
Matrix Compiler1: 110.98 KB object code size  32.2/19.5/[8.6]
Matrix Compiler2: 28.38 KB object code size  7.2/6.3/[2.6]

