Circuit: * D:\ECE_Projects\Music_Visualizer\Entire_Circuit\RhiControl.asc

WARNING: Node NC_02 is floating.
WARNING: Node NC_01 is floating.

Direct Newton iteration for .op point succeeded.

Date: Mon Jun 27 13:08:45 2022
Total elapsed time: 10.112 seconds.

tnom = 27
temp = 27
method = modified trap
totiter = 1139455
traniter = 1139424
tranpoints = 211468
accept = 158721
rejected = 52747
matrix size = 40
fillins = 47
solver = Normal
Matrix Compiler1: 4.76 KB object code size  0.9/0.5/[0.3]
Matrix Compiler2: 4.16 KB object code size  0.4/0.5/[0.4]

