Circuit: * D:\ECE_Projects\Music_Visualizer\Entire_Circuit\RhiControl_LM324.asc

Direct Newton iteration for .op point succeeded.

Date: Mon Jun 27 13:53:40 2022
Total elapsed time: 0.065 seconds.

tnom = 27
temp = 27
method = modified trap
totiter = 2095
traniter = 2082
tranpoints = 1042
accept = 1042
rejected = 0
matrix size = 31
fillins = 36
solver = Normal
Matrix Compiler1: 3.15 KB object code size  0.7/0.4/[0.2]
Matrix Compiler2: 3.15 KB object code size  1.0/0.4/[0.4]

