Circuit: * D:\ECE_Projects\Music_Visualizer\RhiControl\RhiControl_LTC1250.asc

WARNING: Less than two connections to node VEE.  This node is used by VEE.
Direct Newton iteration failed to find .op point.  (Use ".option noopiter" to skip.)
Starting Gmin stepping
Gmin = 10
Gmin = 1.07374
Gmin = 0.115292
Gmin = 0.0123794
vernier = 0.5
vernier = 0.25
vernier = 0.125
Gmin = 0.0050706
vernier = 0.0625
vernier = 0.03125
vernier = 0.015625
vernier = 0.0078125
Gmin = 0.00502149
vernier = 0.00390625
vernier = 0.00195313
vernier = 0.000976563
vernier = 0.000488281
Gmin = 0.005027
Gmin = 0
Gmin stepping succeeded in finding the operating point.


Date: Thu Jul 14 18:47:03 2022
Total elapsed time: 0.123 seconds.

tnom = 27
temp = 27
method = modified trap
totiter = 3478
traniter = 2082
tranpoints = 1042
accept = 1042
rejected = 0
matrix size = 11
fillins = 2
solver = Normal
Matrix Compiler1: 378 bytes object code size  0.1/0.1/[0.1]
Matrix Compiler2: off  [0.1]/0.2/0.1

