Circuit: * D:\ECE_Projects\Music_Visualizer\RhiControl\RhiControl_LM324.asc

Direct Newton iteration for .op point succeeded.

Date: Wed Dec 27 21:30:59 2023
Total elapsed time: 0.089 seconds.

tnom = 27
temp = 27
method = modified trap
totiter = 2095
traniter = 2082
tranpoints = 1042
accept = 1042
rejected = 0
matrix size = 31
fillins = 36
solver = Normal
Matrix Compiler1: 3.15 KB object code size  0.6/0.3/[0.2]
Matrix Compiler2: off  [0.3]/0.4/0.3

