Circuit: * D:\ECE_Projects\Music_Visualizer\RhiControl\RhiControl.asc

Direct Newton iteration for .op point succeeded.

Date: Wed Dec 27 21:29:27 2023
Total elapsed time: 0.189 seconds.

tnom = 27
temp = 27
method = modified trap
totiter = 2101
traniter = 2088
tranpoints = 1045
accept = 1045
rejected = 0
matrix size = 29
fillins = 36
solver = Normal
Matrix Compiler1: 3.07 KB object code size  0.7/0.3/[0.2]
Matrix Compiler2: 2.89 KB object code size  0.3/0.4/[0.3]

