Circuit: * D:\ECE_Projects\Music_Visualizer\Bass Isolator.asc

.OP point found by inspection.
Ignoring empty pin current: Ix(u1:1)
Ignoring empty pin current: Ix(u1:2)
Ignoring empty pin current: Ix(u2:1)
Ignoring empty pin current: Ix(u2:2)
Ignoring empty pin current: Ix(u1:1)
Ignoring empty pin current: Ix(u1:2)
Ignoring empty pin current: Ix(u2:1)
Ignoring empty pin current: Ix(u2:2)

Date: Sat Apr 16 18:50:22 2022
Total elapsed time: 0.105 seconds.

tnom = 27
temp = 27
method = modified trap
totiter = 2138
traniter = 2138
tranpoints = 1070
accept = 1067
rejected = 3
matrix size = 8
fillins = 2
solver = Normal
Matrix Compiler1: 388 bytes object code size  0.1/0.1/[0.1]
Matrix Compiler2: off  [0.1]/0.1/0.1

