Circuit: * D:\ECE_Projects\Music_Visualizer\Ad_hoc\Voltage_Follower_Replacement.asc

WARNING: Less than two connections to node VOUT.  This node is used by Q1.
WARNING: Less than two connections to node NC_01.  This node is used by V2.
WARNING: Less than two connections to node NC_02.  This node is used by R1.
Direct Newton iteration for .op point succeeded.

Date: Fri Oct 27 00:34:43 2023
Total elapsed time: 0.077 seconds.

tnom = 27
temp = 27
method = modified trap
totiter = 2118
traniter = 2088
tranpoints = 1045
accept = 1045
rejected = 0
matrix size = 12
fillins = 0
solver = Normal
Matrix Compiler1:      29 opcodes  0.1/[0.1]/0.1
Matrix Compiler2: off  [0.1]/0.1/0.1

