Circuit: * D:\ECE_Projects\Music_Visualizer\Rectifiers\Bridge Rectifier.asc

.OP point found by inspection.

Date: Fri Apr 22 16:42:23 2022
Total elapsed time: 0.161 seconds.

tnom = 27
temp = 27
method = modified trap
totiter = 2432
traniter = 2432
tranpoints = 1045
accept = 1045
rejected = 0
matrix size = 4
fillins = 1
solver = Normal
Matrix Compiler1: 212 bytes object code size  0.1/0.1/[0.1]
Matrix Compiler2: off  [0.1]/0.1/0.1

