Circuit: * D:\ECE_Projects\Music_Visualizer\Rectifiers\Draft1.asc

.OP point found by inspection.

Date: Sat Apr 23 00:37:05 2022
Total elapsed time: 0.101 seconds.

tnom = 27
temp = 27
method = modified trap
totiter = 2088
traniter = 2088
tranpoints = 1045
accept = 1045
rejected = 0
matrix size = 2
fillins = 0
solver = Normal
Matrix Compiler1: off  [0.0]/0.0/0.0
Matrix Compiler2: off  [0.0]/0.0/0.0

