Circuit: * D:\ECE_Projects\Music_Visualizer\HalfWaveRectifier.asc

.OP point found by inspection.

Date: Fri Apr 22 16:39:59 2022
Total elapsed time: 0.059 seconds.

tnom = 27
temp = 27
method = modified trap
totiter = 2272
traniter = 2272
tranpoints = 1045
accept = 1045
rejected = 0
matrix size = 3
fillins = 0
solver = Normal
Matrix Compiler1:       5 opcodes  0.1/[0.0]/0.0
Matrix Compiler2: off  [0.0]/0.1/0.0

