Circuit: * D:\ECE_Projects\Music_Visualizer\Rectifiers\PrecisionHalfWaveRectifier.asc

Direct Newton iteration for .op point succeeded.

Date: Sat Apr 23 18:11:11 2022
Total elapsed time: 0.221 seconds.

tnom = 27
temp = 27
method = modified trap
totiter = 2816
traniter = 2792
tranpoints = 1073
accept = 1058
rejected = 15
matrix size = 9
fillins = 0
solver = Normal
Matrix Compiler1: 322 bytes object code size  0.1/0.1/[0.1]
Matrix Compiler2: 619 bytes object code size  0.1/0.2/[0.1]

