Circuit: * D:\ECE_Projects\Music_Visualizer\Rectifiers\PrecisionFullWaveRectifier.asc

Direct Newton iteration for .op point succeeded.

Date: Fri Apr 22 21:15:30 2022
Total elapsed time: 0.121 seconds.

tnom = 27
temp = 27
method = modified trap
totiter = 4177
traniter = 4152
tranpoints = 1387
accept = 1289
rejected = 98
matrix size = 11
fillins = 0
solver = Normal
Matrix Compiler1: 476 bytes object code size  0.2/0.1/[0.1]
Matrix Compiler2: 867 bytes object code size  0.1/0.1/[0.1]

