Circuit: * D:\ECE_Projects\Music_Visualizer\Rectifiers\PrecisionHalfWaveRectifier.asc

WARNING: Less than two connections to node NC_01.  This node is used by VCC.
WARNING: Less than two connections to node NC_02.  This node is used by VEE.
Direct Newton iteration for .op point succeeded.

Date: Fri Apr 22 17:19:28 2022
Total elapsed time: 0.076 seconds.

tnom = 27
temp = 27
method = modified trap
totiter = 2342
traniter = 2330
tranpoints = 1045
accept = 1045
rejected = 0
matrix size = 11
fillins = 0
solver = Normal
Matrix Compiler1: 324 bytes object code size  0.1/0.1/[0.1]
Matrix Compiler2: 617 bytes object code size  0.1/0.2/[0.1]

