Circuit: * D:\ECE_Projects\Music_Visualizer\Rectifiers\PrecisionFullWaveRectifier.asc

Direct Newton iteration for .op point succeeded.

Date: Sat Dec 30 17:14:52 2023
Total elapsed time: 0.078 seconds.

tnom = 27
temp = 27
method = modified trap
totiter = 2648
traniter = 2623
tranpoints = 1118
accept = 1094
rejected = 24
matrix size = 11
fillins = 0
solver = Normal
Matrix Compiler1: 476 bytes object code size  0.1/0.1/[0.1]
Matrix Compiler2: 867 bytes object code size  0.1/0.1/[0.1]

