Circuit: * D:\ECE_Projects\Music_Visualizer\Rectifiers\SuperDiodeFullWaveRectifier.asc

Instance "m:u2:6": Length shorter than recommended for a level 2 MOSFET.
Instance "m:u2:5": Length shorter than recommended for a level 2 MOSFET.
Instance "m:u2:4": Length shorter than recommended for a level 2 MOSFET.
Instance "m:u2:3": Length shorter than recommended for a level 2 MOSFET.
Instance "m:u2:2": Length shorter than recommended for a level 2 MOSFET.
Instance "m:u2:1": Length shorter than recommended for a level 2 MOSFET.
Instance "m:u1:6": Length shorter than recommended for a level 2 MOSFET.
Instance "m:u1:5": Length shorter than recommended for a level 2 MOSFET.
Instance "m:u1:4": Length shorter than recommended for a level 2 MOSFET.
Instance "m:u1:3": Length shorter than recommended for a level 2 MOSFET.
Instance "m:u1:2": Length shorter than recommended for a level 2 MOSFET.
Instance "m:u1:1": Length shorter than recommended for a level 2 MOSFET.
Direct Newton iteration failed to find .op point.  (Use ".option noopiter" to skip.)
Starting Gmin stepping
Gmin = 10
Gmin = 1.07374
vernier = 0.5
vernier = 0.25
vernier = 0.125
vernier = 0.0625
vernier = 0.03125
Gmin = 1.0412
vernier = 0.015625
vernier = 0.0078125
Gmin = 1.0132
vernier = 0.00390625
vernier = 0.00195313
Gmin = 1.00827
vernier = 0.00260417
vernier = 0.00130208
Gmin = 1.00515
vernier = 0.000651042
vernier = 0.000868055
vernier = 0.000434028
Gmin = 1.00434
vernier = 0.000578703
vernier = 0.000434027
Gmin = 1.00339
Gmin = 0
Gmin stepping failed

Starting source stepping with srcstepmethod=0
Source Step = 3.0303%
Source Step = 33.3333%
Source Step = 42.4302%
Source Step = 42.4598%
Source Step = 42.4893%
Source Step = 42.5189%
Source Step = 42.5485%
Source Step = 42.5781%
vernier = 0.00146484
Source Step = 42.621%
Source Step = 42.6654%
Source Step = 42.7098%
Source Step = 42.7542%
Source Step = 42.7986%
vernier = 0.00219727
Source Step = 42.8607%
Source Step = 42.9273%
Source Step = 42.9939%
Source Step = 43.0605%
Source Step = 43.1271%
vernier = 0.0032959
Source Step = 43.217%
Source Step = 43.3168%
Source Step = 43.4167%
Source Step = 43.5166%
Source Step = 43.6165%
vernier = 0.00494385
Source Step = 43.7463%
Source Step = 43.8961%
Source Step = 44.0459%
Source Step = 44.1957%
Source Step = 44.3456%
vernier = 0.00741577
Source Step = 44.5328%
Source Step = 44.7575%
Source Step = 44.9823%
Source Step = 45.207%
Source Step = 45.4317%
vernier = 0.0111237
Source Step = 45.7014%
Source Step = 46.0384%
Source Step = 46.3755%
Source Step = 46.7126%
Source Step = 47.0497%
vernier = 0.0166855
Source Step = 47.4373%
Source Step = 47.943%
Source Step = 48.4486%
Source Step = 48.9542%
Source Step = 49.4598%
vernier = 0.0250282
Source Step = 50.016%
Source Step = 50.7744%
Source Step = 51.5329%
Source Step = 52.2913%
Source Step = 53.0497%
vernier = 0.0375423
Source Step = 53.8461%
Source Step = 54.9837%
Source Step = 56.1214%
Source Step = 57.259%
Source Step = 58.3967%
Source Step = 59.5343%
vernier = 0.0563135
Source Step = 61.2408%
Source Step = 62.9473%
Source Step = 64.6537%
Source Step = 66.3602%
Source Step = 68.0667%
vernier = 0.0844703
Source Step = 70.541%
Source Step = 73.1007%
Source Step = 75.6605%
Source Step = 78.2202%
Source Step = 80.7799%
vernier = 0.126705
Source Step = 84.3635%
Source Step = 88.203%
Source Step = 92.0426%
Source Step = 95.8821%
Source Step = 99.7217%
Source stepping succeeded in finding the operating point.

Heightened Def Con from 4.57011e-011 to 3.0457e-009

Date: Fri Apr 22 19:17:03 2022
Total elapsed time: 0.760 seconds.

tnom = 27
temp = 27
method = modified trap
totiter = 15677
traniter = 8065
tranpoints = 3154
accept = 2404
rejected = 751
matrix size = 84
fillins = 69
solver = Normal
Matrix Compiler1: 6.62 KB object code size  1.6/0.9/[0.3]
Matrix Compiler2: off  [1.2]/1.5/1.5

