Circuit: * D:\ECE_Projects\Music_Visualizer\Rectifiers\SuperDiodeHalfWaveRectifier.asc

WARNING: Less than two connections to node N001.  This node is used by R3.
Instance "m:u1:6": Length shorter than recommended for a level 2 MOSFET.
Instance "m:u1:5": Length shorter than recommended for a level 2 MOSFET.
Instance "m:u1:4": Length shorter than recommended for a level 2 MOSFET.
Instance "m:u1:3": Length shorter than recommended for a level 2 MOSFET.
Instance "m:u1:2": Length shorter than recommended for a level 2 MOSFET.
Instance "m:u1:1": Length shorter than recommended for a level 2 MOSFET.
Direct Newton iteration for .op point succeeded.

Date: Sun Oct 09 14:04:44 2022
Total elapsed time: 0.176 seconds.

tnom = 27
temp = 27
method = modified trap
totiter = 2112
traniter = 2090
tranpoints = 1046
accept = 1046
rejected = 0
matrix size = 47
fillins = 12
solver = Normal
Matrix Compiler1: 3.10 KB object code size  0.8/0.4/[0.2]
Matrix Compiler2: 4.48 KB object code size  0.4/0.5/[0.3]

