Circuit: * D:\ECE_Projects\Music_Visualizer\Spectrum_Filters\Final_Filters\AllFiltersBuf_NonBuf.asc

WARNING: Less than two connections to node VS1.  This node is used by V1.
WARNING: Less than two connections to node VS2.  This node is used by V8.
Early termination of direct N-R iteration.
Direct Newton iteration failed to find .op point.  (Use ".option noopiter" to skip.)
Starting Gmin stepping
Gmin = 10
vernier = 0.5
vernier = 0.25
vernier = 0.125
Gmin = 0
Fatal Error: Failed to find DC operating point for AC analysis.
