Circuit: * D:\ECE_Projects\Music_Visualizer\Simulated_Circuits\Power\Reverse_Voltage_Protection.asc

Direct Newton iteration for .op point succeeded.

Date: Sat Dec 30 18:15:10 2023
Total elapsed time: 0.130 seconds.

tnom = 27
temp = 27
method = modified trap
totiter = 2095
traniter = 2088
tranpoints = 1045
accept = 1045
rejected = 0
matrix size = 7
fillins = 0
solver = Normal
Matrix Compiler1: 366 bytes object code size  0.1/0.1/[0.1]
Matrix Compiler2: off  [0.1]/0.1/0.1

