Circuit: * D:\ECE_Projects\Music_Visualizer\Spectrum_Filters\Combined_Final\Combined.asc

WARNING: Less than two connections to node NC_02.  This node is used by Q:U22:1.
WARNING: Less than two connections to node NC_01.  This node is used by Q:U22:2.
WARNING: Less than two connections to node NC_05.  This node is used by Q:U23:1.
WARNING: Less than two connections to node NC_04.  This node is used by Q:U23:2.
WARNING: Less than two connections to node NC_08.  This node is used by Q:U24:1.
WARNING: Less than two connections to node NC_07.  This node is used by Q:U24:2.
Early termination of direct N-R iteration.
Direct Newton iteration failed to find .op point.  (Use ".option noopiter" to skip.)
Starting Gmin stepping
Gmin = 10
vernier = 0.5
vernier = 0.25
vernier = 0.125
vernier = 0.0625
Gmin = 8.61953
vernier = 0.03125
vernier = 0.015625
vernier = 0.0078125
vernier = 0.00390625
Gmin = 8.47038
vernier = 0.00195313
vernier = 0.000976563
vernier = 0.000488281
Gmin = 0
Gmin stepping failed

Starting source stepping with srcstepmethod=0
Source Step = 3.0303%
Source Step = 33.3333%
Source Step = 63.6364%
Source Step = 93.9394%
Source stepping succeeded in finding the operating point.


Date: Wed Jun 22 20:03:02 2022
Total elapsed time: 24.218 seconds.

tnom = 27
temp = 27
method = modified trap
totiter = 83204
traniter = 81490
tranpoints = 40745
accept = 29238
rejected = 11507
matrix size = 644
fillins = 3807
solver = Normal
Thread vector: 144.7/44.9[4] 39.0/17.4[4] 71.6/21.9[4] 11.6/30.5[1]  2592/500
Matrix Compiler1: 391.35 KB object code size  127.3/83.9/[32.5]
Matrix Compiler2: 117.94 KB object code size  79.7/76.0/[30.8]

