Circuit: * D:\ECE_Projects\Music_Visualizer\Spectrum_Filters\Final_Filters\Final_No_Buffer\AllFilters.asc

WARNING: Less than two connections to node NC_01.  This node is used by V0.
Early termination of direct N-R iteration.
Direct Newton iteration failed to find .op point.  (Use ".option noopiter" to skip.)
Starting Gmin stepping
Gmin = 10
vernier = 0.5
Gmin = 1.86414
vernier = 0.25
vernier = 0.125
vernier = 0.0625
vernier = 0.03125
Gmin = 1.82123
vernier = 0.015625
vernier = 0.0078125
vernier = 0.00390625
vernier = 0.00195313
Gmin = 1.81679
vernier = 0.000976563
vernier = 0.000488281
Gmin = 0
Gmin stepping failed

Starting source stepping with srcstepmethod=0
Source Step = 3.0303%
Source Step = 33.3333%
Source Step = 63.6364%
Source Step = 93.9394%
Source stepping succeeded in finding the operating point.


Date: Mon Oct 02 01:25:11 2023
Total elapsed time: 152.967 seconds.

tnom = 27
temp = 27
method = modified trap
totiter = 11727
traniter = 9985
tranpoints = 4990
accept = 3754
rejected = 1236
matrix size = 576
fillins = 22595
solver = Normal
Thread vector: 144.0/115.4[4] 60.0/25.0[4] 140.5/46.4[4] 39.2/46.8[1]  2592/500
Matrix Compiler1: 8.21 MB object code size  3680.9/2368.0/[2490.5]
Matrix Compiler2: 413.85 KB object code size  596.8/370.7/[145.2]

