Circuit: * D:\ECE_Projects\Music_Visualizer\Combined_Circuits\Filters_With_LED_Drivers\FinalBassFilterWithLEDDriver.asc

Early termination of direct N-R iteration.
Direct Newton iteration failed to find .op point.  (Use ".option noopiter" to skip.)
Starting Gmin stepping
Gmin = 10
vernier = 0.5
Gmin = 1.86414
vernier = 0.25
vernier = 0.125
vernier = 0.0625
vernier = 0.03125
Gmin = 1.74088
vernier = 0.015625
vernier = 0.0078125
vernier = 0.00390625
vernier = 0.00195313
Gmin = 1.72987
vernier = 0.00260417
Gmin = 1.71977
vernier = 0.00347222
vernier = 0.00173611
vernier = 0.000868055
vernier = 0.00115741
Gmin = 1.71691
vernier = 0.00154321
vernier = 0.000771604
vernier = 0.000578703
Gmin = 1.71336
vernier = 0.000771604
Gmin = 1.71038
vernier = 0.00102881
vernier = 0.000514403
Gmin = 0
Gmin stepping failed

Starting source stepping with srcstepmethod=0
Source Step = 3.0303%
Source Step = 14.3939%
Source Step = 21.9697%
Source Step = 29.5455%
Source Step = 37.1212%
Source Step = 44.697%
vernier = 0.375
Source Step = 54.5455%
Source Step = 65.9091%
Source Step = 77.2727%
Source Step = 88.6364%
Source Step = 100%
Source stepping succeeded in finding the operating point.


Date: Thu Jun 30 12:35:36 2022
Total elapsed time: 4.708 seconds.

tnom = 27
temp = 27
method = modified trap
totiter = 26739
traniter = 21870
tranpoints = 5975
accept = 4548
rejected = 1427
matrix size = 127
fillins = 709
solver = Normal
Thread vector: 37.5/16.3[3] 14.4/9.3[3] 79.5/18.5[3] 1.1/13.6[1]  2592/500
Matrix Compiler1: 56.21 KB object code size  19.5/10.3/[4.7]
Matrix Compiler2: 22.86 KB object code size  12.2/8.1/[2.1]

