Circuit: * D:\ECE_Projects\Music_Visualizer\Combined_Circuits\Filters_With_LED_Drivers\FinalMidrangeFilterWithLEDDriver.asc

Early termination of direct N-R iteration.
Direct Newton iteration failed to find .op point.  (Use ".option noopiter" to skip.)
Starting Gmin stepping
Gmin = 10
vernier = 0.5
Gmin = 1.86414
vernier = 0.25
vernier = 0.125
vernier = 0.0625
vernier = 0.03125
Gmin = 1.74088
vernier = 0.015625
vernier = 0.0078125
vernier = 0.00390625
Gmin = 1.73407
vernier = 0.00520833
vernier = 0.00260417
vernier = 0.00130208
Gmin = 1.72563
vernier = 0.00173611
vernier = 0.00231481
vernier = 0.00115741
vernier = 0.000578703
Gmin = 1.72058
vernier = 0.000771604
Gmin = 1.71768
vernier = 0.00102881
vernier = 0.00137174
vernier = 0.00068587
vernier = 0.000514403
Gmin = 1.7147
vernier = 0.00068587
Gmin = 1.71213
vernier = 0.000914493
vernier = 0.000457246
Gmin = 0
Gmin stepping failed

Starting source stepping with srcstepmethod=0
Source Step = 3.0303%
Source Step = 14.3939%
Source Step = 21.9697%
Source Step = 29.5455%
Source Step = 37.1212%
Source Step = 44.697%
vernier = 0.375
Source Step = 54.5455%
Source Step = 65.9091%
Source Step = 77.2727%
Source Step = 88.6364%
Source Step = 100%
Source stepping succeeded in finding the operating point.


Date: Thu Jun 30 12:38:42 2022
Total elapsed time: 4.001 seconds.

tnom = 27
temp = 27
method = modified trap
totiter = 19459
traniter = 14160
tranpoints = 4098
accept = 3120
rejected = 978
matrix size = 126
fillins = 725
solver = Normal
Thread vector: 37.2/25.8[3] 9.3/5.7[3] 13.3/11.0[3] 1.0/3.2[1]  2592/500
Matrix Compiler1: 56.92 KB object code size  20.8/10.6/[4.6]
Matrix Compiler2: 23.11 KB object code size  8.8/6.2/[1.3]

