Circuit: * D:\ECE_Projects\Music_Visualizer\Combined_Circuits\Filters_With_LED_Drivers\FinalBrillianceFilterWithLEDDriver.asc

Early termination of direct N-R iteration.
Direct Newton iteration failed to find .op point.  (Use ".option noopiter" to skip.)
Starting Gmin stepping
Gmin = 10
vernier = 0.5
vernier = 0.25
vernier = 0.125
vernier = 0.0625
Gmin = 8.61953
vernier = 0.03125
vernier = 0.015625
vernier = 0.0078125
vernier = 0.00390625
Gmin = 8.47038
vernier = 0.00195313
vernier = 0.000976563
vernier = 0.000488281
Gmin = 0
Gmin stepping failed

Starting source stepping with srcstepmethod=0
Source Step = 3.0303%
Source Step = 16.6667%
Source Step = 24.2424%
Source Step = 31.8182%
Source Step = 39.3939%
Source Step = 46.9697%
vernier = 0.375
Source Step = 56.4394%
Source Step = 67.803%
Source Step = 79.1667%
Source Step = 90.5303%
Source stepping succeeded in finding the operating point.


Date: Tue Jul 12 23:50:57 2022
Total elapsed time: 1.356 seconds.

tnom = 27
temp = 27
method = modified trap
totiter = 13130
traniter = 11028
tranpoints = 3633
accept = 2659
rejected = 974
matrix size = 126
fillins = 523
solver = Normal
Thread vector: 17.1/14.7[3] 7.9/6.2[3] 19.5/9.4[3] 0.8/6.1[1]  2592/500
Matrix Compiler1: 50.50 KB object code size  13.3/7.8/[3.6]
Matrix Compiler2: 19.57 KB object code size  6.2/5.7/[1.7]

