Circuit: * D:\ECE_Projects\Music_Visualizer\Combined_Circuits\Filters_With_LED_Drivers\FinalBrillianceFilterWithLEDDriver.asc

Early termination of direct N-R iteration.
Direct Newton iteration failed to find .op point.  (Use ".option noopiter" to skip.)
Starting Gmin stepping
Gmin = 10
vernier = 0.5
vernier = 0.25
vernier = 0.125
vernier = 0.0625
Gmin = 8.61953
vernier = 0.03125
vernier = 0.015625
vernier = 0.0078125
vernier = 0.00390625
Gmin = 8.47038
vernier = 0.00195313
vernier = 0.000976563
vernier = 0.000488281
Gmin = 0
Gmin stepping failed

Starting source stepping with srcstepmethod=0
Source Step = 3.0303%
Source Step = 14.3939%
Source Step = 21.9697%
Source Step = 29.5455%
Source Step = 37.1212%
Source Step = 44.697%
vernier = 0.375
Source Step = 54.5455%
Source Step = 65.9091%
Source Step = 77.2727%
Source Step = 88.6364%
Source Step = 100%
Source stepping succeeded in finding the operating point.


Date: Thu Jun 30 12:41:32 2022
Total elapsed time: 2.104 seconds.

tnom = 27
temp = 27
method = modified trap
totiter = 11543
traniter = 9393
tranpoints = 2946
accept = 2284
rejected = 662
matrix size = 126
fillins = 523
solver = Normal
Thread vector: 48.8/30.5[3] 3.9/6.6[1] 19.0/7.9[3] 1.1/3.7[1]  2592/500
Matrix Compiler1: 50.50 KB object code size  8.9/4.3/[2.1]
Matrix Compiler2: 19.57 KB object code size  6.4/6.7/[2.7]

