Circuit: * D:\ECE_Projects\Music_Visualizer\Combined_Circuits\Filters_With_LED_Drivers\FinalLowMidrangeWithLEDDriver.asc

Early termination of direct N-R iteration.
Direct Newton iteration failed to find .op point.  (Use ".option noopiter" to skip.)
Starting Gmin stepping
Gmin = 10
vernier = 0.5
vernier = 0.25
vernier = 0.125
vernier = 0.0625
Gmin = 8.61953
vernier = 0.03125
vernier = 0.015625
vernier = 0.0078125
vernier = 0.00390625
Gmin = 8.47038
vernier = 0.00195313
vernier = 0.000976563
vernier = 0.000488281
Gmin = 0
Gmin stepping failed

Starting source stepping with srcstepmethod=0
Source Step = 3.0303%
Source Step = 13.8731%
Source Step = 14.3466%
Source Step = 14.8201%
Source Step = 15.2936%
Source Step = 15.767%
Source Step = 16.2405%
vernier = 0.0234375
Source Step = 16.9508%
Source Step = 17.661%
Source Step = 18.3712%
Source Step = 19.0814%
Source Step = 19.7917%
vernier = 0.0351563
Source Step = 20.8215%
Source Step = 21.8868%
Source Step = 22.9522%
Source Step = 24.0175%
Source Step = 25.0829%
vernier = 0.0527344
Source Step = 26.5743%
Source Step = 28.1723%
Source Step = 29.7704%
Source Step = 31.3684%
Source Step = 32.9664%
vernier = 0.0791016
Source Step = 35.1237%
Source Step = 37.5207%
Source Step = 39.9177%
Source Step = 42.3147%
Source Step = 44.7118%
vernier = 0.118652
Source Step = 47.8279%
Source Step = 51.4234%
Source Step = 55.0189%
Source Step = 58.6145%
Source Step = 62.21%
vernier = 0.177979
Source Step = 66.7044%
Source Step = 72.0977%
Source Step = 77.491%
Source Step = 82.8843%
Source Step = 88.2776%
vernier = 0.266968
Source Step = 94.7495%
Source stepping succeeded in finding the operating point.


Date: Tue Jul 12 23:45:10 2022
Total elapsed time: 5.311 seconds.

tnom = 27
temp = 27
method = modified trap
totiter = 68249
traniter = 64933
tranpoints = 17342
accept = 12403
rejected = 4939
matrix size = 126
fillins = 546
solver = Normal
Thread vector: 22.3/15.2[3] 13.2/9.6[3] 20.0/8.6[3] 1.1/5.6[1]  2592/500
Matrix Compiler1: 56.44 KB object code size  28.6/18.6/[5.0]
Matrix Compiler2: 19.88 KB object code size  5.5/4.6/[1.7]

