Circuit: * D:\ECE_Projects\Music_Visualizer\Combined_Circuits\Filters_With_LED_Drivers\FinalUpperMidrangeFilterWithLEDDriver.asc

Early termination of direct N-R iteration.
Direct Newton iteration failed to find .op point.  (Use ".option noopiter" to skip.)
Starting Gmin stepping
Gmin = 10
vernier = 0.5
Gmin = 1.86414
vernier = 0.25
vernier = 0.125
vernier = 0.0625
vernier = 0.03125
Gmin = 1.74088
vernier = 0.015625
vernier = 0.0078125
vernier = 0.00390625
vernier = 0.00195313
Gmin = 1.72987
vernier = 0.00260417
Gmin = 1.71977
vernier = 0.00347222
vernier = 0.00173611
vernier = 0.000868055
vernier = 0.00115741
Gmin = 1.71691
vernier = 0.00154321
vernier = 0.000771604
vernier = 0.000578703
Gmin = 1.71336
vernier = 0.000771604
Gmin = 1.71038
vernier = 0.00102881
vernier = 0.000514403
Gmin = 0
Gmin stepping failed

Starting source stepping with srcstepmethod=0
Source Step = 3.0303%
Source Step = 14.3939%
Source Step = 21.9697%
Source Step = 29.5455%
Source Step = 37.1212%
Source Step = 44.697%
vernier = 0.375
Source Step = 54.5455%
Source Step = 65.9091%
Source Step = 77.2727%
Source Step = 88.6364%
Source Step = 100%
Source stepping succeeded in finding the operating point.


Date: Thu Jun 30 12:39:41 2022
Total elapsed time: 4.678 seconds.

tnom = 27
temp = 27
method = modified trap
totiter = 16582
traniter = 11716
tranpoints = 3528
accept = 2714
rejected = 814
matrix size = 125
fillins = 742
solver = Normal
Thread vector: 23.5/13.9[3] 16.9/5.6[3] 23.0/8.7[3] 1.0/3.4[1]  2592/500
Matrix Compiler1: 60.03 KB object code size  29.9/24.9/[6.6]
Matrix Compiler2: 23.34 KB object code size  7.1/5.9/[1.6]

