Circuit: * D:\ECE_Projects\Music_Visualizer\Combined_Circuits\Filters_With_LED_Drivers\FinalSubBassFilterWithLEDDriver.asc

Early termination of direct N-R iteration.
Direct Newton iteration failed to find .op point.  (Use ".option noopiter" to skip.)
Starting Gmin stepping
Gmin = 10
vernier = 0.5
vernier = 0.25
vernier = 0.125
vernier = 0.0625
Gmin = 8.61953
vernier = 0.03125
vernier = 0.015625
vernier = 0.0078125
vernier = 0.00390625
Gmin = 8.47038
vernier = 0.00195313
vernier = 0.000976563
vernier = 0.000488281
Gmin = 0
Gmin stepping failed

Starting source stepping with srcstepmethod=0
Source Step = 3.0303%
Source Step = 16.6667%
Source Step = 24.2424%
Source Step = 31.8182%
Source Step = 39.3939%
Source Step = 46.9697%
vernier = 0.375
Source Step = 56.4394%
Source Step = 67.803%
Source Step = 79.1667%
Source Step = 90.5303%
Source stepping succeeded in finding the operating point.


Date: Tue Jul 12 23:38:28 2022
Total elapsed time: 2.450 seconds.

tnom = 27
temp = 27
method = modified trap
totiter = 39937
traniter = 37844
tranpoints = 10141
accept = 7428
rejected = 2713
matrix size = 126
fillins = 546
solver = Normal
Thread vector: 35.5/14.4[3] 7.7/6.2[3] 18.2/7.3[3] 1.4/8.1[1]  2592/500
Matrix Compiler1: 56.42 KB object code size  14.9/8.9/[4.1]
Matrix Compiler2: 19.88 KB object code size  9.6/7.8/[4.1]

