Circuit: * D:\ECE_Projects\Music_Visualizer\Combined_Circuits\Filters_With_LED_Drivers\FinalBassFilterWithLEDDriver.asc

Early termination of direct N-R iteration.
Direct Newton iteration failed to find .op point.  (Use ".option noopiter" to skip.)
Starting Gmin stepping
Gmin = 10
vernier = 0.5
vernier = 0.25
Gmin = 2.09715
vernier = 0.125
vernier = 0.0625
vernier = 0.03125
vernier = 0.015625
vernier = 0.0078125
vernier = 0.00390625
vernier = 0.00195313
vernier = 0.000976563
vernier = 0.000488281
Gmin = 0
Gmin = 0
Gmin stepping failed

Starting source stepping with srcstepmethod=0
Source Step = 3.0303%
Source Step = 16.6667%
Source Step = 24.2424%
Source Step = 31.8182%
Source Step = 39.3939%
Source Step = 46.9697%
vernier = 0.375
Source Step = 56.4394%
Source Step = 67.803%
Source Step = 79.1667%
Source Step = 90.5303%
Source stepping succeeded in finding the operating point.


Date: Tue Jul 12 23:43:57 2022
Total elapsed time: 2.237 seconds.

tnom = 27
temp = 27
method = modified trap
totiter = 28763
traniter = 26727
tranpoints = 7515
accept = 5507
rejected = 2008
matrix size = 127
fillins = 722
solver = Normal
Thread vector: 19.7/12.6[3] 7.9/6.0[3] 15.3/11.0[3] 1.0/3.7[1]  2592/500
Matrix Compiler1: 67.60 KB object code size  18.2/10.6/[4.8]
Matrix Compiler2: 23.09 KB object code size  8.2/3.9/[1.6]

