Circuit: * D:\ECE_Projects\Music_Visualizer\Combined_Circuits\Filters_With_LED_Drivers\FinalPresenceFilterWithLEDDriver.asc

Early termination of direct N-R iteration.
Direct Newton iteration failed to find .op point.  (Use ".option noopiter" to skip.)
Starting Gmin stepping
Gmin = 10
vernier = 0.5
vernier = 0.25
vernier = 0.125
vernier = 0.0625
Gmin = 8.61953
vernier = 0.03125
vernier = 0.015625
vernier = 0.0078125
vernier = 0.00390625
Gmin = 8.47038
vernier = 0.00195313
vernier = 0.000976563
vernier = 0.000488281
Gmin = 0
Gmin stepping failed

Starting source stepping with srcstepmethod=0
Source Step = 3.0303%
Source Step = 14.3939%
Source Step = 21.9697%
Source Step = 29.5455%
Source Step = 37.1212%
Source Step = 44.697%
vernier = 0.375
Source Step = 54.5455%
Source Step = 65.9091%
Source Step = 77.2727%
Source Step = 88.6364%
Source Step = 100%
Source stepping succeeded in finding the operating point.


Date: Thu Jun 30 12:40:15 2022
Total elapsed time: 2.241 seconds.

tnom = 27
temp = 27
method = modified trap
totiter = 12975
traniter = 10837
tranpoints = 3290
accept = 2540
rejected = 750
matrix size = 126
fillins = 546
solver = Normal
Thread vector: 37.6/14.0[3] 9.0/7.3[3] 19.8/7.9[3] 1.1/4.3[1]  2592/500
Matrix Compiler1: 56.42 KB object code size  17.2/10.1/[5.0]
Matrix Compiler2: 19.88 KB object code size  7.0/6.5/[1.5]

