Circuit: * D:\ECE_Projects\Music_Visualizer\Combined_Circuits\Filters_With_LED_Drivers\FinalUpperMidrangeFilterWithLEDDriver2.asc

Early termination of direct N-R iteration.
Direct Newton iteration failed to find .op point.  (Use ".option noopiter" to skip.)
Starting Gmin stepping
Gmin = 10
vernier = 0.5
vernier = 0.25
vernier = 0.125
vernier = 0.0625
Gmin = 8.61953
vernier = 0.03125
vernier = 0.015625
vernier = 0.0078125
vernier = 0.00390625
Gmin = 8.47038
vernier = 0.00195313
vernier = 0.000976563
vernier = 0.000488281
Gmin = 0
Gmin stepping failed

Starting source stepping with srcstepmethod=0
Source Step = 3.0303%
Source Step = 14.3939%
Source Step = 21.9697%
Source Step = 29.5455%
Source Step = 37.1212%
Source Step = 44.697%
vernier = 0.375
Source Step = 54.5455%
Source Step = 65.9091%
Source Step = 77.2727%
Source Step = 88.6364%
Source Step = 100%
Source stepping succeeded in finding the operating point.


Date: Tue Sep 27 00:21:50 2022
Total elapsed time: 2.622 seconds.

tnom = 27
temp = 27
method = modified trap
totiter = 12773
traniter = 10638
tranpoints = 3254
accept = 2539
rejected = 715
matrix size = 150
fillins = 928
solver = Normal
Thread vector: 25.7/17.2[4] 10.0/5.3[4] 24.0/9.4[4] 1.5/4.3[1]  2592/500
Matrix Compiler1: 117.22 KB object code size  34.4/20.6/[8.2]
Matrix Compiler2: 28.27 KB object code size  12.2/8.8/[2.9]

