Circuit: * D:\ECE_Projects\Music_Visualizer\Combined_Circuits\Entire_Circuit\Full_Visualizer.asc

WARNING: Less than two connections to node NC_02.  This node is used by Q:U22:1.
WARNING: Less than two connections to node NC_01.  This node is used by Q:U22:2.
WARNING: Less than two connections to node NC_05.  This node is used by Q:U23:1.
WARNING: Less than two connections to node NC_04.  This node is used by Q:U23:2.
WARNING: Less than two connections to node NC_08.  This node is used by Q:U24:1.
WARNING: Less than two connections to node NC_07.  This node is used by Q:U24:2.
Early termination of direct N-R iteration.
Direct Newton iteration failed to find .op point.  (Use ".option noopiter" to skip.)
Starting Gmin stepping
Gmin = 10
vernier = 0.5
vernier = 0.25
vernier = 0.125
vernier = 0.0625
Gmin = 8.61953
vernier = 0.03125
vernier = 0.015625
vernier = 0.0078125
vernier = 0.00390625
Gmin = 8.47038
vernier = 0.00195313
vernier = 0.000976563
vernier = 0.000488281
Gmin = 0
Gmin stepping failed

Starting source stepping with srcstepmethod=0
Source Step = 3.0303%
Source Step = 33.3333%
Source Step = 63.6364%
Source Step = 93.9394%
Source stepping succeeded in finding the operating point.


Date: Thu Oct 20 23:11:57 2022
Total elapsed time: 12.241 seconds.

tnom = 27
temp = 27
method = modified trap
totiter = 19967
traniter = 18219
tranpoints = 6346
accept = 4387
rejected = 1959
matrix size = 879
fillins = 3936
solver = Normal
Thread vector: 197.2/103.2[4] 59.2/21.9[4] 224.1/72.2[4] 8.4/12.3[1]  2592/500
Matrix Compiler1: 417.15 KB object code size  162.6/95.2/[45.2]
Matrix Compiler2: 140.81 KB object code size  58.2/43.6/[17.2]

